<?xml version="1.0" encoding="UTF-8"?>

<!-- generated on 2021-09-22 00:40:11 by Eclipse SUMO duarouter Version 1.10.0
<configuration xmlns:xsi="http://www.w3.org/2001/XMLSchema-instance" xsi:noNamespaceSchemaLocation="http://sumo.dlr.de/xsd/duarouterConfiguration.xsd">

    <input>
        <net-file value="C:\Users\aliss\Sumo\2021-09-22-00-38-44\osm.net.xml"/>
        <route-files value="C:\Users\aliss\Sumo\2021-09-22-00-38-44\osm.passenger.trips.xml"/>
    </input>

    <output>
        <output-file value="C:\Users\aliss\Sumo\2021-09-22-00-38-44\osm.passenger.trips.xml.tmp"/>
        <write-trips value="true"/>
    </output>

    <time>
        <begin value="0"/>
        <end value="3600"/>
    </time>

    <report>
        <no-warnings value="true"/>
        <ignore-errors value="true"/>
        <no-step-log value="true"/>
    </report>

</configuration>
-->

<routes xmlns:xsi="http://www.w3.org/2001/XMLSchema-instance" xsi:noNamespaceSchemaLocation="http://sumo.dlr.de/xsd/routes_file.xsd">
    <vType id="veh_passenger" vClass="passenger"/>
    <trip id="veh0" type="veh_passenger" depart="0.00" departLane="best" from="253047825#1" to="-181355813#2"/>
    <trip id="veh1" type="veh_passenger" depart="0.44" departLane="best" from="-360929855#0" to="-259850252#2"/>
    <trip id="veh2" type="veh_passenger" depart="0.88" departLane="best" from="344153329#0" to="301521093#1"/>
    <trip id="veh3" type="veh_passenger" depart="1.32" departLane="best" from="504333065#2" to="-193218143#3"/>
    <trip id="veh4" type="veh_passenger" depart="1.76" departLane="best" from="186395198#4" to="-182580899#0"/>
    <trip id="veh5" type="veh_passenger" depart="2.20" departLane="best" departSpeed="max" from="-260136265#3" to="196865714#11"/>
    <trip id="veh6" type="veh_passenger" depart="2.64" departLane="best" from="-182397413#0" to="-207251692#4"/>
    <trip id="veh7" type="veh_passenger" depart="3.08" departLane="best" from="259225197#0" to="204269355#17"/>
    <trip id="veh8" type="veh_passenger" depart="3.52" departLane="best" departSpeed="max" from="-296181204#5" to="207227919"/>
    <trip id="veh9" type="veh_passenger" depart="3.96" departLane="best" from="372510396#12" to="-167025836#2"/>
    <trip id="veh10" type="veh_passenger" depart="4.40" departLane="best" from="372500758#1" to="303099167#1"/>
    <trip id="veh11" type="veh_passenger" depart="4.84" departLane="best" departSpeed="max" from="-543417461" to="-205672771#0"/>
    <trip id="veh12" type="veh_passenger" depart="5.28" departLane="best" from="909086971" to="-479175844#0"/>
    <trip id="veh13" type="veh_passenger" depart="5.73" departLane="best" departSpeed="max" from="-193809811" to="-193309350#2"/>
    <trip id="veh14" type="veh_passenger" depart="6.17" departLane="best" departSpeed="max" from="457728102" to="207251652#3"/>
    <trip id="veh15" type="veh_passenger" depart="6.61" departLane="best" from="372502415#1" to="342138976"/>
    <trip id="veh16" type="veh_passenger" depart="7.05" departLane="best" from="204266507" to="938420817"/>
    <trip id="veh18" type="veh_passenger" depart="7.93" departLane="best" from="390564847#0" to="225971200"/>
    <trip id="veh19" type="veh_passenger" depart="8.37" departLane="best" from="476164951#1" to="207227877#3"/>
    <trip id="veh20" type="veh_passenger" depart="8.81" departLane="best" from="303105497#1" to="-193030329#1"/>
    <trip id="veh21" type="veh_passenger" depart="9.25" departLane="best" departSpeed="max" from="-297172961#9" to="-363471586#2"/>
    <trip id="veh22" type="veh_passenger" depart="9.69" departLane="best" from="-193139500#4" to="-296181223#24"/>
    <trip id="veh24" type="veh_passenger" depart="10.57" departLane="best" from="240164154#0" to="-869364125#0"/>
    <trip id="veh25" type="veh_passenger" depart="11.01" departLane="best" departSpeed="max" from="-981703532" to="-239625514#0"/>
    <trip id="veh26" type="veh_passenger" depart="11.45" departLane="best" departSpeed="max" from="-346678754#1" to="673188488"/>
    <trip id="veh27" type="veh_passenger" depart="11.89" departLane="best" from="258407150#2" to="207251665#0"/>
    <trip id="veh28" type="veh_passenger" depart="12.33" departLane="best" departSpeed="max" from="-207227934#1" to="342138970#1"/>
    <trip id="veh29" type="veh_passenger" depart="12.77" departLane="best" from="-207227896#1" to="162070693"/>
    <trip id="veh30" type="veh_passenger" depart="13.21" departLane="best" from="979887656" to="252988662"/>
    <trip id="veh31" type="veh_passenger" depart="13.65" departLane="best" departSpeed="max" from="204398662#0" to="303051007#0"/>
    <trip id="veh32" type="veh_passenger" depart="14.09" departLane="best" from="421207831#1" to="363480437#1"/>
    <trip id="veh33" type="veh_passenger" depart="14.53" departLane="best" from="-297176957#1" to="-184455075#0"/>
    <trip id="veh34" type="veh_passenger" depart="14.97" departLane="best" from="-411103004#0" to="-324871704#2"/>
    <trip id="veh35" type="veh_passenger" depart="15.41" departLane="best" from="-256235334#3" to="746824245#2"/>
    <trip id="veh36" type="veh_passenger" depart="15.85" departLane="best" from="496253716" to="-389758030#1"/>
    <trip id="veh38" type="veh_passenger" depart="16.74" departLane="best" from="548552297#5" to="193065676#4"/>
    <trip id="veh39" type="veh_passenger" depart="17.18" departLane="best" from="-342138972#2" to="-303082613#1"/>
    <trip id="veh40" type="veh_passenger" depart="17.62" departLane="best" from="204398681#3" to="-305176890"/>
    <trip id="veh41" type="veh_passenger" depart="18.06" departLane="best" departSpeed="max" from="207227888#0" to="539264853"/>
    <trip id="veh42" type="veh_passenger" depart="18.50" departLane="best" from="181347081#1" to="-259387144#2"/>
    <trip id="veh43" type="veh_passenger" depart="18.94" departLane="best" from="984046515" to="197203391#4"/>
    <trip id="veh44" type="veh_passenger" depart="19.38" departLane="best" departSpeed="max" from="-193309355#2" to="-193030335#2"/>
    <trip id="veh45" type="veh_passenger" depart="19.82" departLane="best" from="-199352106#1" to="231863316#2"/>
    <trip id="veh46" type="veh_passenger" depart="20.26" departLane="best" from="368091913#1" to="184515614#2"/>
    <trip id="veh47" type="veh_passenger" depart="20.70" departLane="best" from="-193131671#2" to="167025815#1"/>
    <trip id="veh48" type="veh_passenger" depart="21.14" departLane="best" from="982048928" to="200018527#0"/>
    <trip id="veh49" type="veh_passenger" depart="21.58" departLane="best" from="919094719" to="478958532#4"/>
    <trip id="veh50" type="veh_passenger" depart="22.02" departLane="best" from="-181341703#2" to="318229636"/>
    <trip id="veh51" type="veh_passenger" depart="22.46" departLane="best" from="301521094#0" to="204266513#4"/>
    <trip id="veh52" type="veh_passenger" depart="22.90" departLane="best" departSpeed="max" from="-346678754#1" to="253047825#6"/>
    <trip id="veh53" type="veh_passenger" depart="23.34" departLane="best" departSpeed="max" from="-199880987" to="193026200#4"/>
    <trip id="veh54" type="veh_passenger" depart="23.78" departLane="best" from="193065660#2" to="869364131#0"/>
    <trip id="veh55" type="veh_passenger" depart="24.22" departLane="best" from="495506547" to="-305176897#0"/>
    <trip id="veh56" type="veh_passenger" depart="24.66" departLane="best" from="194338160#1" to="-207227941"/>
    <trip id="veh57" type="veh_passenger" depart="25.10" departLane="best" from="547917915" to="487732371"/>
    <trip id="veh58" type="veh_passenger" depart="25.54" departLane="best" departSpeed="max" from="-372500448" to="240733801"/>
    <trip id="veh59" type="veh_passenger" depart="25.98" departLane="best" from="207251664#4" to="-205672763#0"/>
    <trip id="veh60" type="veh_passenger" depart="26.42" departLane="best" from="360926608#2" to="204266525#0"/>
    <trip id="veh61" type="veh_passenger" depart="26.86" departLane="best" from="363481691#10" to="200028060"/>
    <trip id="veh62" type="veh_passenger" depart="27.30" departLane="best" from="-162070698#1" to="-421207842#0"/>
    <trip id="veh63" type="veh_passenger" depart="27.75" departLane="best" from="-181347087#9" to="648290382#1"/>
    <trip id="veh64" type="veh_passenger" depart="28.19" departLane="best" from="49793795#1" to="396388560"/>
    <trip id="veh65" type="veh_passenger" depart="28.63" departLane="best" from="-390517208#0" to="-193032310"/>
    <trip id="veh66" type="veh_passenger" depart="29.07" departLane="best" from="49732814#0" to="777361473#1"/>
    <trip id="veh67" type="veh_passenger" depart="29.51" departLane="best" from="-193218441#8" to="193218140#8"/>
    <trip id="veh68" type="veh_passenger" depart="29.95" departLane="best" from="-193138280#1" to="360926608#2"/>
    <trip id="veh69" type="veh_passenger" depart="30.39" departLane="best" from="360935208#1" to="-204266524#1"/>
    <trip id="veh70" type="veh_passenger" depart="30.83" departLane="best" departSpeed="max" from="193139476#0" to="204398598#2"/>
    <trip id="veh71" type="veh_passenger" depart="31.27" departLane="best" from="-342138975" to="493145653"/>
    <trip id="veh72" type="veh_passenger" depart="31.71" departLane="best" from="186395216#8" to="-240272342#1"/>
    <trip id="veh73" type="veh_passenger" depart="32.15" departLane="best" departSpeed="max" from="204266521#0" to="342138978#1"/>
    <trip id="veh74" type="veh_passenger" depart="32.59" departLane="best" from="-231863316#6" to="-381445966#0"/>
    <trip id="veh75" type="veh_passenger" depart="33.03" departLane="best" from="981877332#3" to="259225198#1"/>
    <trip id="veh76" type="veh_passenger" depart="33.47" departLane="best" from="193030337#1" to="199341671#1"/>
    <trip id="veh77" type="veh_passenger" depart="33.91" departLane="best" from="-204266523#1" to="-270890210#0"/>
    <trip id="veh78" type="veh_passenger" depart="34.35" departLane="best" from="-539340430#1" to="207227908#1"/>
    <trip id="veh79" type="veh_passenger" depart="34.79" departLane="best" departSpeed="max" from="-301511505" to="-259401628#3"/>
    <trip id="veh80" type="veh_passenger" depart="35.23" departLane="best" from="-193138289#4" to="231972348#1"/>
    <trip id="veh81" type="veh_passenger" depart="35.67" departLane="best" from="-297176957#0" to="541642569"/>
    <trip id="veh82" type="veh_passenger" depart="36.11" departLane="best" from="474821610" to="-193136464#13"/>
    <trip id="veh83" type="veh_passenger" depart="36.55" departLane="best" from="-303082613#5" to="296181230#1"/>
    <trip id="veh84" type="veh_passenger" depart="36.99" departLane="best" from="-259228704#0" to="-204269350#0"/>
    <trip id="veh85" type="veh_passenger" depart="37.43" departLane="best" from="659429371#1" to="207227863#2"/>
    <trip id="veh86" type="veh_passenger" depart="37.87" departLane="best" from="193139465#0" to="366529377"/>
    <trip id="veh87" type="veh_passenger" depart="38.31" departLane="best" from="372502415#3" to="-207251657#5"/>
    <trip id="veh88" type="veh_passenger" depart="38.76" departLane="best" from="-197203389#0" to="191714268#2"/>
    <trip id="veh89" type="veh_passenger" depart="39.20" departLane="best" from="191114806#1" to="193134675#2"/>
    <trip id="veh90" type="veh_passenger" depart="39.64" departLane="best" departSpeed="max" from="330357696" to="297176956#7"/>
    <trip id="veh91" type="veh_passenger" depart="40.08" departLane="best" departSpeed="max" from="978257827" to="-194338158#0"/>
    <trip id="veh92" type="veh_passenger" depart="40.52" departLane="best" from="181347086#1" to="-49793796#1"/>
    <trip id="veh93" type="veh_passenger" depart="40.96" departLane="best" from="476164951#1" to="-303099171#0"/>
    <trip id="veh94" type="veh_passenger" depart="41.40" departLane="best" from="-207251671#6" to="193032294#1"/>
    <trip id="veh96" type="veh_passenger" depart="42.28" departLane="best" from="-305135154#0" to="630340602#1"/>
    <trip id="veh97" type="veh_passenger" depart="42.72" departLane="best" from="193032293#0" to="478958534"/>
    <trip id="veh98" type="veh_passenger" depart="43.16" departLane="best" from="204269370#0" to="-193032281#0"/>
    <trip id="veh99" type="veh_passenger" depart="43.60" departLane="best" from="984451665" to="406234080#0"/>
    <trip id="veh100" type="veh_passenger" depart="44.04" departLane="best" from="911408239#0" to="647084084"/>
    <trip id="veh101" type="veh_passenger" depart="44.48" departLane="best" from="457935898#2" to="-207227877#1"/>
    <trip id="veh102" type="veh_passenger" depart="44.92" departLane="best" departSpeed="max" from="193218144#0" to="-256235317#0"/>
    <trip id="veh103" type="veh_passenger" depart="45.36" departLane="best" from="181347082#5" to="-193032314#0"/>
    <trip id="veh104" type="veh_passenger" depart="45.80" departLane="best" departSpeed="max" from="167025828#0" to="978455013#2"/>
    <trip id="veh105" type="veh_passenger" depart="46.24" departLane="best" from="-342138978#0" to="366528696#1"/>
    <trip id="veh106" type="veh_passenger" depart="46.68" departLane="best" from="193065673#3" to="186395187#0"/>
    <trip id="veh107" type="veh_passenger" depart="47.12" departLane="best" from="909086971" to="981877332#0"/>
    <trip id="veh108" type="veh_passenger" depart="47.56" departLane="best" departSpeed="max" from="204398637#0" to="305435187#3"/>
    <trip id="veh109" type="veh_passenger" depart="48.00" departLane="best" from="-207227874#1" to="-366524619"/>
    <trip id="veh110" type="veh_passenger" depart="48.44" departLane="best" from="911407630#0" to="207227885#1"/>
    <trip id="veh111" type="veh_passenger" depart="48.88" departLane="best" from="204266533#3" to="358980056#1"/>
    <trip id="veh112" type="veh_passenger" depart="49.33" departLane="best" departSpeed="max" from="-193065643#5" to="207227897#0"/>
    <trip id="veh113" type="veh_passenger" depart="49.77" departLane="best" from="194907257#3" to="462356169#0"/>
    <trip id="veh114" type="veh_passenger" depart="50.21" departLane="best" from="-207227881#1" to="910969927"/>
    <trip id="veh115" type="veh_passenger" depart="50.65" departLane="best" from="-193139502#2" to="-207251646#2"/>
    <trip id="veh116" type="veh_passenger" depart="51.09" departLane="best" from="207227944#4" to="301511500#0"/>
    <trip id="veh117" type="veh_passenger" depart="51.53" departLane="best" from="-303082596#0" to="-200018526#1"/>
    <trip id="veh118" type="veh_passenger" depart="51.97" departLane="best" from="504322126" to="-303082610#0"/>
    <trip id="veh119" type="veh_passenger" depart="52.41" departLane="best" from="207227944#11" to="225971204"/>
    <trip id="veh120" type="veh_passenger" depart="52.85" departLane="best" from="184515613#0" to="207227895#2"/>
    <trip id="veh121" type="veh_passenger" depart="53.29" departLane="best" from="199352104#1" to="659413623"/>
    <trip id="veh122" type="veh_passenger" depart="53.73" departLane="best" from="-239625514#3" to="305176898#2"/>
    <trip id="veh123" type="veh_passenger" depart="54.17" departLane="best" from="-303099166#0" to="181326586#0"/>
    <trip id="veh124" type="veh_passenger" depart="54.61" departLane="best" from="296181223#18" to="-368284014#1"/>
    <trip id="veh125" type="veh_passenger" depart="55.05" departLane="best" from="-420843500#0" to="358981140#2"/>
    <trip id="veh126" type="veh_passenger" depart="55.49" departLane="best" departSpeed="max" from="-193138294#3" to="193065674#1"/>
    <trip id="veh127" type="veh_passenger" depart="55.93" departLane="best" departSpeed="max" from="984444815" to="982044004#0"/>
    <trip id="veh128" type="veh_passenger" depart="56.37" departLane="best" departSpeed="max" from="-193138295#4" to="-240272347#9"/>
    <trip id="veh129" type="veh_passenger" depart="56.81" departLane="best" from="-342138978#0" to="658557317#1"/>
    <trip id="veh130" type="veh_passenger" depart="57.25" departLane="best" from="49874189#2" to="49793805"/>
    <trip id="veh132" type="veh_passenger" depart="58.13" departLane="best" from="396388572#0" to="303174856#0"/>
    <trip id="veh133" type="veh_passenger" depart="58.57" departLane="best" from="207251672#0" to="978487723#1"/>
    <trip id="veh134" type="veh_passenger" depart="59.01" departLane="best" from="259426348#2" to="-167025845#1"/>
    <trip id="veh135" type="veh_passenger" depart="59.45" departLane="best" from="377043810#2" to="-368079759#1"/>
    <trip id="veh136" type="veh_passenger" depart="59.89" departLane="best" departSpeed="max" from="286663226" to="697518354#1"/>
    <trip id="veh137" type="veh_passenger" depart="60.34" departLane="best" from="-204398640" to="-199352104#3"/>
    <trip id="veh138" type="veh_passenger" depart="60.78" departLane="best" from="-199341700#2" to="204398655#3"/>
    <trip id="veh140" type="veh_passenger" depart="61.66" departLane="best" from="305172087#0" to="-231530583#4"/>
    <trip id="veh141" type="veh_passenger" depart="62.10" departLane="best" from="239625514#2" to="-305176899#2"/>
    <trip id="veh142" type="veh_passenger" depart="62.54" departLane="best" from="193218443#1" to="541642569"/>
    <trip id="veh143" type="veh_passenger" depart="62.98" departLane="best" from="446229614#1" to="-193218446#6"/>
    <trip id="veh144" type="veh_passenger" depart="63.42" departLane="best" from="191114806#1" to="-350463977#7"/>
    <trip id="veh145" type="veh_passenger" depart="63.86" departLane="best" departSpeed="max" from="-167025826#5" to="363462602#3"/>
    <trip id="veh146" type="veh_passenger" depart="64.30" departLane="best" from="240164166" to="-305172098#3"/>
    <trip id="veh147" type="veh_passenger" depart="64.74" departLane="best" from="350103659#5" to="204398605#7"/>
    <trip id="veh148" type="veh_passenger" depart="65.18" departLane="best" departSpeed="max" from="192657978" to="-181341686#0"/>
    <trip id="veh149" type="veh_passenger" depart="65.62" departLane="best" from="-193139472#5" to="499724239#0"/>
    <trip id="veh150" type="veh_passenger" depart="66.06" departLane="best" from="539340429#0" to="204269358#1"/>
    <trip id="veh151" type="veh_passenger" depart="66.50" departLane="best" from="396388579" to="207227892#4"/>
    <trip id="veh152" type="veh_passenger" depart="66.94" departLane="best" departSpeed="max" from="-205672784#2" to="-204266521#0"/>
    <trip id="veh153" type="veh_passenger" depart="67.38" departLane="best" departSpeed="max" from="-390526209" to="539264858#3"/>
    <trip id="veh154" type="veh_passenger" depart="67.82" departLane="best" from="368494304" to="478958532#3"/>
    <trip id="veh155" type="veh_passenger" depart="68.26" departLane="best" from="539264851#3" to="-239631042"/>
    <trip id="veh156" type="veh_passenger" depart="68.70" departLane="best" departSpeed="max" from="-305085771#9" to="-197203391#0"/>
    <trip id="veh157" type="veh_passenger" depart="69.14" departLane="best" from="363481691#9" to="50014718#1"/>
    <trip id="veh158" type="veh_passenger" depart="69.58" departLane="best" from="181355803#3" to="226668204"/>
    <trip id="veh159" type="veh_passenger" depart="70.02" departLane="best" from="-207227873#4" to="648311155"/>
    <trip id="veh160" type="veh_passenger" depart="70.46" departLane="best" from="478958725#0" to="955920872"/>
    <trip id="veh161" type="veh_passenger" depart="70.90" departLane="best" from="372510397#1" to="49874191#3"/>
    <trip id="veh162" type="veh_passenger" depart="71.35" departLane="best" from="-181355828#0" to="346678754#1"/>
    <trip id="veh163" type="veh_passenger" depart="71.79" departLane="best" departSpeed="max" from="-493145653" to="651568227#1"/>
    <trip id="veh164" type="veh_passenger" depart="72.23" departLane="best" departSpeed="max" from="371529911#0" to="478958727#3"/>
    <trip id="veh165" type="veh_passenger" depart="72.67" departLane="best" from="372510397#1" to="-319385686#0"/>
    <trip id="veh166" type="veh_passenger" depart="73.11" departLane="best" from="367135967" to="-197592117#0"/>
    <trip id="veh167" type="veh_passenger" depart="73.55" departLane="best" from="487732371" to="475192923"/>
    <trip id="veh168" type="veh_passenger" depart="73.99" departLane="best" from="-296181219#0" to="383436323"/>
    <trip id="veh169" type="veh_passenger" depart="74.43" departLane="best" from="193131674#0" to="-372502415#6"/>
    <trip id="veh170" type="veh_passenger" depart="74.87" departLane="best" from="368284016#2" to="-296181206#0"/>
    <trip id="veh171" type="veh_passenger" depart="75.31" departLane="best" from="-181355822#4" to="-207251663#5"/>
    <trip id="veh173" type="veh_passenger" depart="76.19" departLane="best" from="256235334#3" to="181341703#1"/>
    <trip id="veh174" type="veh_passenger" depart="76.63" departLane="best" departSpeed="max" from="970256106" to="204266511#0"/>
    <trip id="veh175" type="veh_passenger" depart="77.07" departLane="best" from="684791417" to="-199352104#1"/>
    <trip id="veh176" type="veh_passenger" depart="77.51" departLane="best" from="919094712" to="-207227941"/>
    <trip id="veh177" type="veh_passenger" depart="77.95" departLane="best" from="910969930" to="-305176904"/>
    <trip id="veh178" type="veh_passenger" depart="78.39" departLane="best" from="-199341711#9" to="193026200#2"/>
    <trip id="veh179" type="veh_passenger" depart="78.83" departLane="best" from="330066204#2" to="-387563050#2"/>
    <trip id="veh180" type="veh_passenger" depart="79.27" departLane="best" from="207251659#1" to="197203419"/>
    <trip id="veh181" type="veh_passenger" depart="79.71" departLane="best" from="167596737#0" to="207227876#4"/>
    <trip id="veh182" type="veh_passenger" depart="80.15" departLane="best" from="-305176900#1" to="305135146#0"/>
    <trip id="veh183" type="veh_passenger" depart="80.59" departLane="best" from="-167025821#1" to="646954138#1-AddedOffRampEdge"/>
    <trip id="veh184" type="veh_passenger" depart="81.03" departLane="best" from="204266516#1" to="307900765#1"/>
    <trip id="veh185" type="veh_passenger" depart="81.47" departLane="best" from="350103672#4" to="296321573"/>
    <trip id="veh186" type="veh_passenger" depart="81.91" departLane="best" from="-958982835" to="-193133931"/>
    <trip id="veh187" type="veh_passenger" depart="82.36" departLane="best" from="286673108#1" to="-462103271"/>
    <trip id="veh188" type="veh_passenger" depart="82.80" departLane="best" from="-406078188" to="459839141#0"/>
    <trip id="veh189" type="veh_passenger" depart="83.24" departLane="best" from="305176889#1" to="-368284014#14"/>
    <trip id="veh190" type="veh_passenger" depart="83.68" departLane="best" departSpeed="max" from="-390529699" to="181347088#6"/>
    <trip id="veh191" type="veh_passenger" depart="84.12" departLane="best" from="181347084#1" to="-366482430#0"/>
    <trip id="veh192" type="veh_passenger" depart="84.56" departLane="best" from="-204269358#3" to="184515327#2"/>
    <trip id="veh193" type="veh_passenger" depart="85.00" departLane="best" from="697518350#1" to="301521094#0"/>
    <trip id="veh194" type="veh_passenger" depart="85.44" departLane="best" from="539338506#0" to="219393351#1"/>
    <trip id="veh195" type="veh_passenger" depart="85.88" departLane="best" from="-373701308" to="204269368#0"/>
    <trip id="veh196" type="veh_passenger" depart="86.32" departLane="best" from="-162070698#0" to="-363460872#2"/>
    <trip id="veh197" type="veh_passenger" depart="86.76" departLane="best" from="193026199#1" to="207227887"/>
    <trip id="veh198" type="veh_passenger" depart="87.20" departLane="best" from="259470103#3" to="193131830#4"/>
    <trip id="veh199" type="veh_passenger" depart="87.64" departLane="best" from="193032284#1" to="-256235317#0"/>
    <trip id="veh200" type="veh_passenger" depart="88.08" departLane="best" from="193139466#5" to="539338501#1"/>
    <trip id="veh201" type="veh_passenger" depart="88.52" departLane="best" from="368486584#3" to="-207227888#0"/>
    <trip id="veh202" type="veh_passenger" depart="88.96" departLane="best" from="-193218437#1" to="197592121"/>
    <trip id="veh203" type="veh_passenger" depart="89.40" departLane="best" departSpeed="max" from="232064218#0" to="-478958726#1"/>
    <trip id="veh204" type="veh_passenger" depart="89.84" departLane="best" from="377045467#1" to="358981138#0"/>
    <trip id="veh205" type="veh_passenger" depart="90.28" departLane="best" from="296181230#0" to="-270890210#0"/>
    <trip id="veh206" type="veh_passenger" depart="90.72" departLane="best" from="-231672162#0" to="-181355804#0"/>
    <trip id="veh207" type="veh_passenger" depart="91.16" departLane="best" from="-303174856#12" to="193138301#0"/>
    <trip id="veh208" type="veh_passenger" depart="91.60" departLane="best" from="458526550#2" to="-193136467#4"/>
    <trip id="veh209" type="veh_passenger" depart="92.04" departLane="best" from="183332637#3" to="231877657#4"/>
    <trip id="veh210" type="veh_passenger" depart="92.48" departLane="best" from="-223683193#3" to="303099158#5"/>
    <trip id="veh211" type="veh_passenger" depart="92.92" departLane="best" from="193220757" to="-303082596#0"/>
    <trip id="veh212" type="veh_passenger" depart="93.37" departLane="best" departSpeed="max" from="259692596#0" to="-167025835#0"/>
    <trip id="veh213" type="veh_passenger" depart="93.81" departLane="best" from="358980057#0" to="363460872#2"/>
    <trip id="veh214" type="veh_passenger" depart="94.25" departLane="best" departSpeed="max" from="-199341698" to="186395216#4"/>
    <trip id="veh215" type="veh_passenger" depart="94.69" departLane="best" departSpeed="max" from="-207227950#1" to="910969916#0"/>
    <trip id="veh216" type="veh_passenger" depart="95.13" departLane="best" from="199341689" to="-193032280#0"/>
    <trip id="veh217" type="veh_passenger" depart="95.57" departLane="best" from="-305085771#8" to="459839142"/>
    <trip id="veh218" type="veh_passenger" depart="96.01" departLane="best" departSpeed="max" from="193065698" to="371530859#3"/>
    <trip id="veh219" type="veh_passenger" depart="96.45" departLane="best" departSpeed="max" from="296181208#0" to="979684641"/>
    <trip id="veh220" type="veh_passenger" depart="96.89" departLane="best" from="207227944#9" to="822733657#0"/>
    <trip id="veh221" type="veh_passenger" depart="97.33" departLane="best" from="504322135#1" to="207251678#2"/>
    <trip id="veh222" type="veh_passenger" depart="97.77" departLane="best" from="305172101#0" to="196865714#0"/>
    <trip id="veh223" type="veh_passenger" depart="98.21" departLane="best" from="390997810#4" to="204269367#1"/>
    <trip id="veh225" type="veh_passenger" depart="99.09" departLane="best" departSpeed="max" from="193139474#0" to="-305085771#8"/>
    <trip id="veh226" type="veh_passenger" depart="99.53" departLane="best" from="-303174867" to="240272342#1"/>
    <trip id="veh227" type="veh_passenger" depart="99.97" departLane="best" from="360935208#1" to="199341711#7"/>
    <trip id="veh228" type="veh_passenger" depart="100.41" departLane="best" from="231858522" to="-344153356#1"/>
    <trip id="veh229" type="veh_passenger" depart="100.85" departLane="best" from="-193139483#0" to="-363458497#2"/>
    <trip id="veh231" type="veh_passenger" depart="101.73" departLane="best" departSpeed="max" from="204266524#0" to="-204398597#2"/>
    <trip id="veh232" type="veh_passenger" depart="102.17" departLane="best" from="-301981254#1" to="303082608#0"/>
    <trip id="veh233" type="veh_passenger" depart="102.61" departLane="best" departSpeed="max" from="303109575#0" to="-193065673#3"/>
    <trip id="veh234" type="veh_passenger" depart="103.05" departLane="best" from="181355813#2" to="204269348#0"/>
    <trip id="veh235" type="veh_passenger" depart="103.49" departLane="best" departSpeed="max" from="184455075#0" to="-231863315#5"/>
    <trip id="veh236" type="veh_passenger" depart="103.93" departLane="best" departSpeed="max" from="184515850#0" to="541610490"/>
    <trip id="veh237" type="veh_passenger" depart="104.38" departLane="best" departSpeed="max" from="207227885#0" to="303099158#0"/>
    <trip id="veh238" type="veh_passenger" depart="104.82" departLane="best" from="468894471#2" to="360935211#3"/>
    <trip id="veh239" type="veh_passenger" depart="105.26" departLane="best" from="-705551511#2" to="360051161"/>
    <trip id="veh240" type="veh_passenger" depart="105.70" departLane="best" from="462002390#1" to="869364126#3"/>
    <trip id="veh241" type="veh_passenger" depart="106.14" departLane="best" from="184515336" to="358977809"/>
    <trip id="veh242" type="veh_passenger" depart="106.58" departLane="best" from="204269355#3" to="207251652#0"/>
    <trip id="veh243" type="veh_passenger" depart="107.02" departLane="best" from="-296181205#0" to="-259387144#4"/>
    <trip id="veh244" type="veh_passenger" depart="107.46" departLane="best" from="193030325#3" to="-182397413#0"/>
    <trip id="veh245" type="veh_passenger" depart="107.90" departLane="best" from="-50783245#0" to="301521097#0"/>
    <trip id="veh246" type="veh_passenger" depart="108.34" departLane="best" departSpeed="max" from="181347088#0" to="-207227876#12"/>
    <trip id="veh247" type="veh_passenger" depart="108.78" departLane="best" from="193136467#3" to="-204266521#2"/>
    <trip id="veh248" type="veh_passenger" depart="109.22" departLane="best" departSpeed="max" from="231292993" to="-181355827#0"/>
    <trip id="veh249" type="veh_passenger" depart="109.66" departLane="best" departSpeed="max" from="181341698#0" to="205672771#1"/>
    <trip id="veh250" type="veh_passenger" depart="110.10" departLane="best" from="-182580899#1" to="256388722#2"/>
    <trip id="veh251" type="veh_passenger" depart="110.54" departLane="best" from="-204398664#8" to="193131669#0"/>
    <trip id="veh252" type="veh_passenger" depart="110.98" departLane="best" from="-193032284#0" to="162070691"/>
    <trip id="veh253" type="veh_passenger" depart="111.42" departLane="best" from="-256526910" to="-457728102"/>
    <trip id="veh254" type="veh_passenger" depart="111.86" departLane="best" departSpeed="max" from="360924351#0" to="162070691"/>