<?xml version="1.0" encoding="UTF-8"?>
<!-- generated on 2021-09-22 00:39:44.829000 by $Id: ptlines2flows.py v1_3_1+0313-ccb31df3eb jakob.erdmann@dlr.de 2019-09-02 13:26:32 +0200 $ v1_10_0+0000-83496a5972
  options: 
-->
<routes xmlns:xsi="http://www.w3.org/2001/XMLSchema-instance" xsi:noNamespaceSchemaLocation="http://sumo.dlr.de/xsd/routes_file.xsd">
    <vType id="pt_bus" vClass="bus"/>
    <vType id="pt_tram" vClass="tram"/>
    <vType id="pt_train" vClass="rail"/>
    <vType id="pt_subway" vClass="rail_urban"/>
    <vType id="pt_light_rail" vClass="rail_urban"/>
    <vType id="pt_monorail" vClass="rail"/>
    <vType id="pt_trolleybus" vClass="bus"/>
    <vType id="pt_aerialway" vClass="bus"/>
    <vType id="pt_ferry" vClass="ship"/>
    <route id="pt_bus_223G:0" edges="-368079759#1 -368079759#0 -240272342#1 -240272342#0 -193030336 -259401634#1 -259401634#0 -259401642 -193030328#1 -507082100 193023737 368494313#0 504333064 50783634#0 50783634#2 50783634#3 50783634#4 368494305#0 368494305#1 368494305#2 231958644#1 231958644#2 231958644#3 957244973#0 957244973#2 368494304 406018091 758726401 368494306#1 50014718#1 50014718#3 50014718#4 406062453#0 406062453#1 49874201 396388572#0 396388572#1 396388572#2 225971208#0 225971208#2 225971208#3 344153349 50013146#0 50013146#2 50676752#0 50676752#1 358563417#1 358563417#2" >
        <stop busStop="-4951510689" duration="30.00" until="44.0"/> <!-- None -->
    </route>
    <route id="pt_bus_155C:0" edges="361257111#0 361257111#1 910969919 910259244#0 49874189#0 49874189#1 49874189#2 49874189#3 49874189#4 49874189#5 49874189#6 49874189#7 49874189#8 49874189#9 504333065#1 504333065#2 504333065#3 -226668204 -360923889#1 -360923889#0 360922572#0 613070677#0 981022848#0 360929410#2 981575457#0 981575457#1 358980596#0 358980596#1 981575456 358980597#0 358980598 360935207#0 360935207#1 360935208#0 360935208#1 360935208#2 349367691 358563419#0 358563419#1 396388577#0 396388577#1 358563417#1 358563417#2" >
        <stop busStop="2656636463" duration="30.00" until="52.0"/> <!-- None -->
    </route>
    <route id="pt_bus_355A:0" edges="330357696 49874191#0 49874191#1 49874191#2 49874191#3 49874191#4 49874191#5 49874191#6 49874191#7 979878879#0 193131830#0 193131830#3 193131830#4 193131830#5 193131830#6 -193131668#3 -193131668#2 -193131668#1 -193131668#0 -193131670#1 -193131670#0 49732812#0 49732812#1 49732812#2 49732812#3 49732812#4" >
        <stop busStop="5871070196" duration="30.00" until="61.0"/> <!-- None -->
    </route>
    <route id="pt_bus_:22" edges="361257111#0 361257111#1 910969919 910259244#0 368559564#0 368559564#1 368559564#2 978472962#0 910969916#0 539662254#0 539662254#1 978478718#0 938426328#1 406313403#0 406313403#1 978481204#0 368091905#1 344153330#1 368559565#1 344153329#0 540758088#0 540758088#1 540758086 978487723#0 978487723#1 55354008 55354009#1 55354009#2 55354009#4 55354009#5 55354009#6 55354009#7 55354009#8" >
        <stop busStop="2656636463" duration="30.00" until="50.0"/> <!-- None -->
    </route>
    <route id="pt_bus_212A:0" edges="232064218#0 474821610 341783022#1 458140049#0 193189977 193189978 462356174 462356169#0 344153357 457493243#2 462356162#0 462356162#1 344153358#0 368091941#1 49874201 505107579 49874216#0 344153358#0 368091941#1 49874201 192656812 193325083 193325084 193026199#0 193026199#1 193026199#2 193026199#4 193026200#3 193026200#4 424816480#2 364699454#1 364699454#2 364699454#4 396378810 -754719368#4 -754719368#3 -754719368#1 -754719368#0 193026203#1 364699454#1 364699454#2 364699454#4 396378810 253047825#0 253047825#1 253047825#2 253047825#3 253047825#4 253047825#5 253047825#6" >
        <stop busStop="4686905462" duration="30.00" until="53.0"/> <!-- None -->
        <stop busStop="2458620746" duration="30.00" until="191.0"/> <!-- None -->
        <stop busStop="4544828402" duration="30.00" until="288.0"/> <!-- None -->
        <stop busStop="5310712709" duration="30.00" until="402.0"/> <!-- None -->
        <stop busStop="4919388425" duration="30.00" until="483.0"/> <!-- None -->
        <stop busStop="5310712708" duration="30.00" until="541.0"/> <!-- None -->
    </route>
    <route id="pt_bus_223V:0" edges="-368079759#1 -368079759#0 -240272342#1 -240272342#0 -193030336 -259401634#1 -259401634#0 -259401642 -193030328#1 -507082100 193023737 368494313#0 504333064 50783634#0 50783634#2 50783634#3 50783634#4 368494305#0 368494305#1 368494305#2 231958644#1 231958644#2 231958644#3 957244973#0 957244973#2 368494304 406018091 758726401 368494306#1 50014718#1 50014718#3 50014718#4 406062453#0 406062453#1 49874201 396388572#0 396388572#1 396388572#2 225971208#0 225971208#2 225971208#3 344153349 50013146#0 50013146#2 50676752#0 50676752#1 358563417#1 358563417#2" >
        <stop busStop="-4951510689" duration="30.00" until="46.0"/> <!-- None -->
    </route>
    <route id="pt_bus_212E:0" edges="-368079759#1 -368079759#0 -240272342#1 -240272342#0 -193030336 -259401634#1 -259401634#0 -259401642 -193030328#1 -507082100 193023737 368494313#0 504333064 50783634#0 50783634#2 50783634#3 50783634#4 368494305#0 368494305#1 368494305#2 231958644#1 231958644#2 231958644#3 957244973#0 957244973#2 368494304 406018091 758726401 368494306#1 50014718#1 50014718#3 50014718#4 406062453#0 406062453#1 49874201 396388572#0 396388572#1 396388572#2 225971208#0 225971208#2 225971208#3 344153349 50013146#0 50013146#2 50676752#0 50676752#1 358563417#1 358563417#2" >
        <stop busStop="-4951510689" duration="30.00" until="77.0"/> <!-- None -->
    </route>
    <route id="pt_bus_223C:0" edges="-368079759#1 -368079759#0 -240272342#1 -240272342#0 -193030336 -259401634#1 -259401634#0 -259401642 -193030328#1 -507082100 193023737 368494313#0 504333064 50783634#0 50783634#2 50783634#3 50783634#4 368494305#0 368494305#1 368494305#2 231958644#1 231958644#2 231958644#3 957244973#0 957244973#2 368494304 406018091 758726401 368494306#1 50014718#1 50014718#3 50014718#4 406062453#0 406062453#1 49874201 396388572#0 396388572#1 396388572#2 225971208#0 225971208#2 225971208#3 344153349 50013146#0 50013146#2 50676752#0 50676752#1 358563417#1 358563417#2" >
        <stop busStop="-4951510689" duration="30.00" until="108.0"/> <!-- None -->
    </route>
    <route id="pt_bus_154A:1" edges="49874192 360922569#0 360922569#1 358981136#1 982058341 982058337 358981135 982058336 358980528#0 269016265 269016266#0 358977806 358977807 633932892" >
        <stop busStop="5366197388" duration="30.00" until="43.0"/> <!-- None -->
    </route>
    <route id="pt_bus_:13" edges="386046545#0 386046545#1 360929856#0 386046549#1 386046549#2 -386046542 -193133932 360929856#0 386046546#1 360930642 360933445 386046544#0 499724239#0 503896684 980996793 980996794 360933445 386046544#0 499724239#0 259426347#0 259426347#1 358980598 360935207#0 360935207#1 360935208#0 360935208#1 360935208#2 193189977 193189978 462356174 462356169#0 344153357 457493243#2 462356162#0 462356162#1 344153358#0 499726265 231972355#0 231972355#1 49793804#1 49793804#2 507082099 301521095#0 301521095#2 368494308#0 368494308#2 365729211#1 193809813#0 193809813#1 193809813#2 193809813#3 193809813#5 -368708847#5 -368708847#4 -368708847#3 -368708847#2 -368708847#1 -368708847#0 -253047824#2 -253047824#1 -253047824#0 200672740#3" >
        <stop busStop="5111887937" duration="30.00" until="55.0"/> <!-- None -->
        <stop busStop="5111887938" duration="30.00" until="144.0"/> <!-- None -->
        <stop busStop="5111887933" duration="30.00" until="218.0"/> <!-- None -->
        <stop busStop="5111887934" duration="30.00" until="321.0"/> <!-- None -->
    </route>
    <route id="pt_bus_:62" edges="958982836 958982830 958982835 387565205 162070698#0 162070698#1 960208361 960208360 960208362 352049278 958914458#0 958914458#1 958914458#2 260232099#0 260232099#1 260232099#2 883262172#0 883262172#2 883262172#3 883262172#4 883262172#5 709043445 658557318 504033184 658557319#0 658557319#1 658557317#0 658557317#1 504033182 822002096#0 -305068793#2 -305068793#1 -305068793#0 -305135153#0 -390517208#1 -390517208#0 -305135154#1 -305135154#0 -259431917#2 199341682 -231288092#1 -231288092#0 -390529701#2 -390529701#0 -191714268#1 -191714268#0 -390999304 193391674 -305172100 -369303818#1 -369303818#0 -199341740 192428837#12 192428837#13 192428837#14 192428837#15" >
        <stop busStop="2093445983" duration="30.00" until="310.0"/> <!-- Rodoviária de Santa Maria -->
    </route>
    <route id="pt_bus_:0" edges="720014524 369303823#0 369303823#1 -270246362 369303818#0 369303818#1 369303818#2 240164154#0 240164154#1 240164154#2 231972352 -193309350#2 -307757213 -305172089#2 -305172089#1 -305172089#0 -406034174 -305172088 -470007000#1 -470007000#0 -193032288 -470006995#0 305435187#3 305435187#4 979885209 497029975 497029974 962790338 193030311#0 193030311#1 193030311#2 193030311#3 193030311#4 372500446#0 372500446#1 372500446#3 193030317#0 193030317#1 259401628#0 259401628#1 259401628#2 259401628#3 259401628#4 372500444#1 372500444#2 372500444#3 496253716 459839141#0 459839141#1 459839141#2 459839141#3 -372502415#11 -372502415#10 -372502415#9 -372502415#8 -372502415#7 -372502415#6 -372502415#5 -372502415#4 -372502415#3 -372502415#2 -372502415#1 -372502415#0 -678028830#1 193030320#0 193030320#1 193030320#2 196687023 505582540 193138280#0 193138280#1 193138280#2 193138280#3 193138280#4 193138280#5 193138280#6 981703533 303099165 303099166#0 303099166#1 303099166#2 303099166#3 303099166#4 303099166#6 303099166#7 475192922#0 475192922#1 475192922#2 475192923 207251646#1 207251646#2 207251646#3 207251646#4 207251646#5 207251646#7 704171177 981703530 303099167#0 303099167#1 303099167#2 303099167#3 303099167#4 981703526 364677459 259470113#1 364677460#0 364677460#1 364677460#2 364677460#3 364655296#0 364655296#1 364655296#2 364655296#4 364655296#5 364655296#6 364655296#7 364655296#8 364655296#9 303082586 547917917 646954138#0 646954138#1 646954138#1-AddedOffRampEdge 646954138#2 547917916#0 547917916#1 547917916#2 547917915 368091888#0 368091888#0-AddedOffRampEdge 181326562 545371937#2 545371937#3 181347079#0 181347079#1 181347079#2 181347079#3 568381692#0 568381692#1 -363472906#3 -363472906#1 -363472906#0 -539338534 -911320129 -539338526 -421207841#1 -421207841#0 -911320117#0 -303082598#2 -303082598#1 -303082598#0 -259470109#1 -259470109#0 167596737#0 167596737#1 167596745 167699933 -421207840#0 323729615 -494077523 -303082600 -167596741#1 -167596741#0" >
        <stop busStop="2093445993" duration="30.00" until="31.0"/> <!-- Rodoviária de Santa Maria -->
        <stop busStop="3305119535" duration="30.00" until="714.0"/> <!-- Rodoviária de Camobi -->
    </route>
    <route id="pt_bus_541S:0" edges="-368079759#1 -368079759#0 -240272342#1 -240272342#0 -193030336 -259401634#1 -259401634#0 -259401642 -193030328#1 -507082100 193023737 368494313#0 504333064 50783634#0 50783634#2 50783634#3 50783634#4 368494305#0 368494305#1 368494305#2 231958644#1 231958644#2 231958644#3 957244973#0 957244973#2 368494304 406018091 758726401 368494306#1 50014718#1 50014718#3 50014718#4 406062453#0 406062453#1 49874201 396388572#0 396388572#1 396388572#2 225971208#0 225971208#2 225971208#3 344153349 50013146#0 50013146#2 50676752#0 50676752#1 358563417#1 358563417#2" >
        <stop busStop="-4951510689" duration="30.00" until="79.0"/> <!-- None -->
    </route>
    <route id="pt_bus_223A:0" edges="-368079759#1 -368079759#0 -240272342#1 -240272342#0 -193030336 -259401634#1 -259401634#0 -259401642 -193030328#1 -507082100 193023737 368494313#0 504333064 50783634#0 50783634#2 50783634#3 50783634#4 368494305#0 368494305#1 368494305#2 231958644#1 231958644#2 231958644#3 957244973#0 957244973#2 368494304 406018091 758726401 368494306#1 50014718#1 50014718#3 50014718#4 406062453#0 406062453#1 49874201 396388572#0 396388572#1 396388572#2 225971208#0 225971208#2 225971208#3 344153349 50013146#0 50013146#2 50676752#0 50676752#1 358563417#1 358563417#2" >
        <stop busStop="-4951510689" duration="30.00" until="138.0"/> <!-- None -->
    </route>
    <route id="pt_bus_236B:0" edges="49874192 360922569#0 360922569#1 613070677#0 981022848#0 360929410#2 981575457#0 981575457#1 358980596#0 358980596#1 981575456 358980597#0 358980598 360935207#0 360935207#1 360935208#0 360935208#1 360935208#2 349367691 474643000#1 50301275#0 50301275#1 50301275#2" >
        <stop busStop="5366197388" duration="30.00" until="42.0"/> <!-- None -->
    </route>
    <route id="pt_bus_Santa_Maria_→_Estrela_via_Santa_Cruz_e_Venâncio_Aires:0" edges="-720014553 369303823#0 369303823#1 -270246362 369303818#0 369303818#1 369303818#2 240164154#0 240164154#1 240164154#2 231972352 -193309350#2 -307757213 -305172089#2 -305172089#1 -305172089#0 -406034174 -305172088 -470007000#1 -470007000#0 -193032288 -470006995#0 305435187#3 305435187#4 979885209 497029975 497029974 962790338 193030311#0 193030311#1 193030311#2 193030311#3 193030311#4 372500446#0 372500446#1 372500446#3 193030317#0 193030317#1 259401628#0 259401628#1 259401628#2 259401628#3 259401628#4 372500444#1 372500444#2 372500444#3 496253716 459839141#0 459839141#1 459839141#2 459839141#3 -372502415#11 -372502415#10 -372502415#9 -372502415#8 -372502415#7 -372502415#6 -372502415#5 -372502415#4 -372502415#3 -372502415#2 -372502415#1 -372502415#0 -678028830#1 193030320#0 193030320#1 193030320#2 196687023 505582540 193138280#0 193138280#1 193138280#2 193138280#3 193138280#4 193138280#5 193138280#6 981703533 303099165 303099166#0 303099166#1 303099166#2 303099166#3 303099166#4 303099166#6 303099166#7 475192922#0 475192922#1 475192922#2 475192923 207251646#1 207251646#2 207251646#3 207251646#4 207251646#5 207251646#7 704171177 981703530 303099167#0 303099167#1 303099167#2 303099167#3 303099167#4 981703526 364677459 259470113#1 364677460#0 364677460#1 364677460#2 364677460#3 364655296#0 364655296#1 364655296#2 364655296#4 364655296#5 364655296#6 364655296#7 364655296#8 364655296#9 303082586 547917917 646954138#0 646954138#1 646954138#1-AddedOffRampEdge 646954138#2 547917916#0 547917916#1 547917916#2 547917915 368091888#0 368091888#0-AddedOffRampEdge 181326562 545371937#2 545371937#3 181347079#0 181347079#1 181347079#2 181347079#3 568381692#0 568381692#1 -363472906#3 -363472906#1 -363472906#0 -539338534 -911320129 -539338526 -421207841#1 -421207841#0 -911320117#0 -303082598#2 -303082598#1 -303082598#0 -259470109#1 -259470109#0 167596737#0 167596737#1 167596745 167699933 -421207840#0 323729615 -494077523 -303082600 -167596741#1 -167596741#0" >
        <stop busStop="3305119535" duration="30.00" until="735.0"/> <!-- Rodoviária de Camobi -->
    </route>
    <route id="pt_bus_Caçapava_do_Sul_→_Santa_Maria_via_São_Sepé:0" edges="958982836 958982830 958982835 387565205 162070698#0 162070698#1 960208361 960208360 960208362 352049278 958914458#0 958914458#1 958914458#2 260232099#0 260232099#1 260232099#2 883262172#0 883262172#2 883262172#3 883262172#4 883262172#5 709043445 658557318 504033184 658557319#0 658557319#1 658557317#0 658557317#1 504033182 822002096#0 -305068793#2 -305068793#1 -305068793#0 -305135153#0 -390517208#1 -390517208#0 -305135154#1 -305135154#0 -259431917#2 199341682 -231288092#1 -231288092#0 -390529701#2 -390529701#0 -191714268#1 -191714268#0 -390999304 193391674 -305172100 -369303818#1 -369303818#0 -199341740 192428837#12 192428837#13 192428837#14 192428837#15" >
        <stop busStop="6083737966" duration="30.00" until="48.0"/> <!-- None -->
    </route>
    <route id="pt_bus_155C:1" edges="232064218#0 474821610 341783022#1 458140049#0 193189977 193189978 462356174 462356169#0 344153357 457493243#2 462356162#0 462356162#1 475997383#1 475997383#2 475997382#0 475997382#1 475997382#2 475997382#3 978455013#1 978455013#2 369024791#0 369024791#1 191706895#0 191706895#1 978455012#0 368091899#0 368091899#1 368091899#2 368091905#1 344153330#1 368091899#0 368091899#1 368091899#2 978456482 504338188#0 978456483#0 525268747 978462764#0 368559006#0 408999833#1 978471464 910259243#0 225971204" >
        <stop busStop="4017965051" duration="30.00" until="110.0"/> <!-- None -->
        <stop busStop="4578488447" duration="30.00" until="236.0"/> <!-- None -->
        <stop busStop="4696675289" duration="30.00" until="307.0"/> <!-- None -->
        <stop busStop="4696675290" duration="30.00" until="437.0"/> <!-- None -->
        <stop busStop="5274441694" duration="30.00" until="506.0"/> <!-- None -->
        <stop busStop="6519748646" duration="30.00" until="537.0"/> <!-- None -->
        <stop busStop="2656636367" duration="30.00" until="600.0"/> <!-- None -->
        <stop busStop="6519748644" duration="30.00" until="631.0"/> <!-- None -->
        <stop busStop="2656636422" duration="30.00" until="682.0"/> <!-- None -->
        <stop busStop="6519748648" duration="30.00" until="713.0"/> <!-- None -->
        <stop busStop="2656636452" duration="30.00" until="825.0"/> <!-- None -->
    </route>
    <route id="pt_bus_223E:0" edges="-368079759#1 -368079759#0 -240272342#1 -240272342#0 -193030336 -259401634#1 -259401634#0 -259401642 -193030328#1 -507082100 193023737 368494313#0 504333064 50783634#0 50783634#2 50783634#3 50783634#4 368494305#0 368494305#1 368494305#2 231958644#1 231958644#2 231958644#3 957244973#0 957244973#2 368494304 406018091 758726401 368494306#1 50014718#1 50014718#3 50014718#4 406062453#0 406062453#1 49874201 396388572#0 396388572#1 396388572#2 225971208#0 225971208#2 225971208#3 344153349 50013146#0 50013146#2 50676752#0 50676752#1 358563417#1 358563417#2" >
        <stop busStop="-4951510689" duration="30.00" until="108.0"/> <!-- None -->
    </route>
    <route id="pt_bus_Santa_Maria_→_Silveira_Martins:0" edges="-720014527 199341740 369303818#0 369303818#1 369303818#2 240164154#0 240164154#1 240164154#2 231972352 -193309350#2 -307757213 -305172089#2 -305172089#1 -305172089#0 -406034174 -305172088 -470007000#1 -470007000#0 -193032288 -470006995#0 305435187#3 305435187#4 979885209 497029975 497029974 962790338 193030311#0 193030311#1 193030311#2 193030311#3 193030311#4 372500446#0 372500446#1 372500446#3 193030317#0 193030317#1 259401628#0 259401628#1 259401628#2 259401628#3 259401628#4 372500444#1 372500444#2 372500444#3 496253716 459839141#0 459839141#1 459839141#2 459839141#3 -372502415#11 -372502415#10 -372502415#9 -372502415#8 -372502415#7 -372502415#6 -372502415#5 -372502415#4 -372502415#3 -372502415#2 -372502415#1 -372502415#0 -678028830#1 193030320#0 193030320#1 193030320#2 196687023 505582540 193138280#0 193138280#1 193138280#2 193138280#3 193138280#4 193138280#5 193138280#6 981703533 303099165 303099166#0 303099166#1 303099166#2 303099166#3 303099166#4 303099166#6 303099166#7 475192922#0 475192922#1 475192922#2 475192923 207251646#1 207251646#2 207251646#3 207251646#4 207251646#5 207251646#7 704171177 981703530 303099167#0 303099167#1 303099167#2 303099167#3 303099167#4 981703526 364677459 259470113#1 364677460#0 364677460#1 364677460#2 364677460#3 364655296#0 364655296#1 364655296#2 364655296#4 364655296#5 364655296#6 364655296#7 364655296#8 364655296#9 303082586 547917917 181326561 181326581 181326590 -303082575#1 -303082575#0 -303082580#4 -303082580#3 -303082580#2 -303082580#1 -303082580#0 -303082577#2 -303082577#0 -363460870#0 -363460869 -303082573#7 -303082573#6 -303082573#5 -303082573#4 -303082573#3 -303082573#2 -303082573#0 -297176955 -297176956#12 -297176956#11 -297176956#10 -297176956#9 -297176956#8 -297176956#7 -297176956#6 -297176956#4 -297176956#3 -297176956#2 -297176956#0 -363458497#4 -363458497#3 -363458497#2 -363458497#0 -303082572#5 -303082572#4 -303082572#3 -303082572#2 -303082572#1 -303082572#0 -363457760#1 -363457760#0" >
        <stop busStop="-6757893109" duration="30.00" until="31.0"/> <!-- None -->
    </route>
    <route id="pt_bus_:1" edges="720014524 369303823#0 369303823#1 -270246362 369303818#0 369303818#1 369303818#2 240164154#0 240164154#1 240164154#2 231972352 -193309350#2 -307757213 -305172089#2 -305172089#1 -305172089#0 -406034174 -305172088 -470007000#1 -470007000#0 -193032288 -470006995#0 305435187#3 305435187#4 979885209 497029975 497029974 962790338 193030311#0 193030311#1 193030311#2 193030311#3 193030311#4 372500446#0 372500446#1 372500446#3 193030317#0 193030317#1 259401628#0 259401628#1 259401628#2 259401628#3 259401628#4 372500444#1 372500444#2 372500444#3 496253716 459839141#0 459839141#1 459839141#2 459839141#3 -372502415#11 -372502415#10 -372502415#9 -372502415#8 -372502415#7 -372502415#6 -372502415#5 -372502415#4 -372502415#3 -372502415#2 -372502415#1 -372502415#0 -678028830#1 193030320#0 193030320#1 193030320#2 196687023 505582540 193138280#0 193138280#1 193138280#2 193138280#3 193138280#4 193138280#5 193138280#6 981703533 303099165 303099166#0 303099166#1 303099166#2 303099166#3 303099166#4 303099166#6 303099166#7 475192922#0 475192922#1 475192922#2 475192923 207251646#1 207251646#2 207251646#3 207251646#4 207251646#5 207251646#7 704171177 981703530 303099167#0 303099167#1 303099167#2 303099167#3 303099167#4 981703526 364677459 259470113#1 364677460#0 364677460#1 364677460#2 364677460#3 364655296#0 364655296#1 364655296#2 364655296#4 364655296#5 364655296#6 364655296#7 364655296#8 364655296#9 303082586 547917917 646954138#0 646954138#1 646954138#1-AddedOffRampEdge 646954138#2 547917916#0 547917916#1 547917916#2 547917915 368091888#0 368091888#0-AddedOffRampEdge 181326562 545371937#2 545371937#3 181347079#0 181347079#1 181347079#2 181347079#3 568381692#0 568381692#1 -363472906#3 -363472906#1 -363472906#0 -539338534 -911320129 -539338526 -421207841#1 -421207841#0 -911320117#0 -303082598#2 -303082598#1 -303082598#0 -259470109#1 -259470109#0 167596737#0 167596737#1 167596745 167699933 -421207840#0 323729615 -494077523 -303082600 -167596741#1 -167596741#0" >
        <stop busStop="2093445993" duration="30.00" until="31.0"/> <!-- Rodoviária de Santa Maria -->
        <stop busStop="3305119535" duration="30.00" until="770.0"/> <!-- Rodoviária de Camobi -->
    </route>
    <route id="pt_bus_160:1" edges="361257111#0 361257111#1 910969919 910259244#0 368559564#0 368559564#1 368559564#2 978472962#0 910969916#0 539662254#0 539662254#1 978478718#0 938426328#1 406313403#0 406313403#1 978481204#0 368091905#1 344153330#1 368559565#1 344153329#0 540758088#0 540758088#1 540758086 978487723#0 978487723#1 55354008 55354009#1 55354009#2 55354009#4 55354009#5 55354009#6 55354009#7 55354009#8" >
        <stop busStop="2656636463" duration="30.00" until="50.0"/> <!-- None -->
    </route>
    <route id="pt_bus_São_Sepé_→_Santa_Maria:0" edges="958982836 958982830 958982835 387565205 162070698#0 162070698#1 960208361 960208360 960208362 352049278 958914458#0 958914458#1 958914458#2 260232099#0 260232099#1 260232099#2 883262172#0 883262172#2 883262172#3 883262172#4 883262172#5 709043445 658557318 504033184 658557319#0 658557319#1 658557317#0 658557317#1 504033182 822002096#0 -305068793#2 -305068793#1 -305068793#0 -305135153#0 -390517208#1 -390517208#0 -305135154#1 -305135154#0 -259431917#2 199341682 -231288092#1 -231288092#0 -390529701#2 -390529701#0 -191714268#1 -191714268#0 -390999304 193391674 -305172100 -369303818#1 -369303818#0 -199341740 192428837#12 192428837#13 192428837#14 192428837#15" >
        <stop busStop="6083737966" duration="30.00" until="82.0"/> <!-- None -->
    </route>
    <route id="pt_bus_212F:0" edges="-368079759#1 -368079759#0 -240272342#1 -240272342#0 -193030336 -259401634#1 -259401634#0 -259401642 -193030328#1 -507082100 193023737 368494313#0 504333064 50783634#0 50783634#2 50783634#3 50783634#4 368494305#0 368494305#1 368494305#2 231958644#1 231958644#2 231958644#3 957244973#0 957244973#2 368494304 406018091 758726401 368494306#1 50014718#1 50014718#3 50014718#4 406062453#0 406062453#1 49874201 396388572#0 396388572#1 396388572#2 225971208#0 225971208#2 225971208#3 344153349 50013146#0 50013146#2 50676752#0 50676752#1 358563417#1 358563417#2" >
        <stop busStop="-4951510689" duration="30.00" until="171.0"/> <!-- None -->
    </route>
    <route id="pt_bus_:23" edges="55354009#8 369024788#0 369024788#1 344153357 457493243#2 462356162#0 462356162#1 475997383#1 475997383#2 475997382#0 475997382#1 475997382#2 475997382#3 978455013#1 978455013#2 369024791#0 369024791#1 191706895#0 191706895#1 978455012#0 368091899#0 368091899#1 368091899#2 368091905#1 344153330#1 368091899#0 368091899#1 368091899#2 978456482 504338188#0 978456483#0 525268747 978462764#0 368559006#0 408999833#1 978471464 910259243#0 225971204" >
        <stop busStop="3728594979" duration="30.00" until="43.0"/> <!-- None -->
        <stop busStop="3728594978" duration="30.00" until="74.0"/> <!-- None -->
        <stop busStop="4578488447" duration="30.00" until="187.0"/> <!-- None -->
        <stop busStop="4696675289" duration="30.00" until="284.0"/> <!-- None -->
        <stop busStop="4696675290" duration="30.00" until="375.0"/> <!-- None -->
        <stop busStop="5274441694" duration="30.00" until="461.0"/> <!-- None -->
        <stop busStop="6519748646" duration="30.00" until="492.0"/> <!-- None -->
        <stop busStop="2656636367" duration="30.00" until="557.0"/> <!-- None -->
        <stop busStop="6519748644" duration="30.00" until="588.0"/> <!-- None -->
        <stop busStop="2656636422" duration="30.00" until="638.0"/> <!-- None -->
        <stop busStop="6519748648" duration="30.00" until="669.0"/> <!-- None -->
        <stop busStop="2656636452" duration="30.00" until="772.0"/> <!-- None -->
    </route>
    <route id="pt_bus_:2" edges="720014524 369303823#0 369303823#1 -270246362 369303818#0 369303818#1 369303818#2 240164154#0 240164154#1 240164154#2 231972352 -193309350#2 -307757213 -305172089#2 -305172089#1 -305172089#0 -406034174 -305172088 -470007000#1 -470007000#0 -193032288 -470006995#0 305435187#3 305435187#4 979885209 497029975 497029974 962790338 193030311#0 193030311#1 193030311#2 193030311#3 193030311#4 372500446#0 372500446#1 372500446#3 193030317#0 193030317#1 259401628#0 259401628#1 259401628#2 259401628#3 259401628#4 372500444#1 372500444#2 372500444#3 496253716 459839141#0 459839141#1 459839141#2 459839141#3 -372502415#11 -372502415#10 -372502415#9 -372502415#8 -372502415#7 -372502415#6 -372502415#5 -372502415#4 -372502415#3 -372502415#2 -372502415#1 -372502415#0 -678028830#1 193030320#0 193030320#1 193030320#2 196687023 505582540 193138280#0 193138280#1 193138280#2 193138280#3 193138280#4 193138280#5 193138280#6 981703533 303099165 303099166#0 303099166#1 303099166#2 303099166#3 303099166#4 303099166#6 303099166#7 475192922#0 475192922#1 475192922#2 475192923 207251646#1 207251646#2 207251646#3 207251646#4 207251646#5 207251646#7 704171177 981703530 303099167#0 303099167#1 303099167#2 303099167#3 303099167#4 981703526 364677459 259470113#1 364677460#0 364677460#1 364677460#2 364677460#3 364655296#0 364655296#1 364655296#2 364655296#4 364655296#5 364655296#6 364655296#7 364655296#8 364655296#9 303082586 547917917 646954138#0 646954138#1 646954138#1-AddedOffRampEdge 646954138#2 547917916#0 547917916#1 547917916#2 547917915 368091888#0 368091888#0-AddedOffRampEdge 181326562 545371937#2 545371937#3 181347079#0 181347079#1 181347079#2 181347079#3 568381692#0 568381692#1 -363472906#3 -363472906#1 -363472906#0 -539338534 -911320129 -539338526 -421207841#1 -421207841#0 -911320117#0 -303082598#2 -303082598#1 -303082598#0 -259470109#1 -259470109#0 167596737#0 167596737#1 167596745 167699933 -421207840#0 323729615 -494077523 -303082600 -167596741#1 -167596741#0" >
        <stop busStop="2093445993" duration="30.00" until="31.0"/> <!-- Rodoviária de Santa Maria -->
        <stop busStop="3305119535" duration="30.00" until="774.0"/> <!-- Rodoviária de Camobi -->
    </route>
    <route id="pt_bus_Santana_da_Boa_Vista_→_Santa_Maria:0" edges="958982836 958982830 958982835 387565205 162070698#0 162070698#1 960208361 960208360 960208362 352049278 958914458#0 958914458#1 958914458#2 260232099#0 260232099#1 260232099#2 883262172#0 883262172#2 883262172#3 883262172#4 883262172#5 709043445 658557318 504033184 658557319#0 658557319#1 658557317#0 658557317#1 504033182 822002096#0 -305068793#2 -305068793#1 -305068793#0 -305135153#0 -390517208#1 -390517208#0 -305135154#1 -305135154#0 -259431917#2 199341682 -231288092#1 -231288092#0 -390529701#2 -390529701#0 -191714268#1 -191714268#0 -390999304 193391674 -305172100 -369303818#1 -369303818#0 -199341740 192428837#12 192428837#13 192428837#14 192428837#15" >
        <stop busStop="6083737966" duration="30.00" until="114.0"/> <!-- None -->
    </route>
    <route id="pt_bus_156:0" edges="361257111#0 361257111#1 910969919 910259244#0 49874189#0 49874189#1 49874189#2 49874189#3 49874189#4 49874189#5 49874189#6 49874189#7 49874189#8 49874189#9 504333065#1 504333065#2 504333065#3 -226668204 -360923889#1 -360923889#0 360922572#0 613070677#0 981022848#0 360929410#2 981575457#0 981575457#1 358980596#0 358980596#1 981575456 358980597#0 358980598 360935207#0 360935207#1 360935208#0 360935208#1 360935208#2 349367691 358563419#0 358563419#1 396388577#0 396388577#1 358563417#1 358563417#2" >
        <stop busStop="2656636463" duration="30.00" until="51.0"/> <!-- None -->
    </route>