<?xml version="1.0" encoding="UTF-8"?>

<routes xmlns:xsi="http://www.w3.org/2001/XMLSchema-instance" xsi:noNamespaceSchemaLocation="http://sumo.dlr.de/xsd/routes_file.xsd">
    <vType id="bus_bus" vClass="bus" />
    <trip id="bus0" type="bus_bus" depart="0.00" departLane="best" from="360929409" to="301981265#0" via="269016270 368091905#1 499726265 49793804#2 777361473#1 662251444#2 459923742 259734495 258407154 911408239#0 302762415#1 301981257#1 -167699927 167699930#3 301981265#0 " /> 
    <trip id="bus1" type="bus_bus" depart="10.00" departLane="best" from="360929409" to="301981265#0" via="269016270 368091905#1 499726265 49793804#2 777361473#1 662251444#2 459923742 259734495 258407154 911408239#0 302762415#1 301981257#1 -167699927 167699930#3 301981265#0 " /> 
    <trip id="bus2" type="bus_bus" depart="20.00" departLane="best" from="360929409" to="301981265#0" via="269016270 368091905#1 499726265 49793804#2 777361473#1 662251444#2 459923742 259734495 258407154 911408239#0 302762415#1 301981257#1 -167699927 167699930#3 301981265#0 " /> 
    <trip id="bus3" type="bus_bus" depart="30.00" departLane="best" from="360929409" to="301981265#0" via="269016270 368091905#1 499726265 49793804#2 777361473#1 662251444#2 459923742 259734495 258407154 911408239#0 302762415#1 301981257#1 -167699927 167699930#3 301981265#0 " /> 
    <trip id="bus4" type="bus_bus" depart="40.00" departLane="best" from="360929409" to="301981265#0" via="269016270 368091905#1 499726265 49793804#2 777361473#1 662251444#2 459923742 259734495 258407154 911408239#0 302762415#1 301981257#1 -167699927 167699930#3 301981265#0 " /> 
    <trip id="bus5" type="bus_bus" depart="50.00" departLane="best" from="360929409" to="301981265#0" via="269016270 368091905#1 499726265 49793804#2 777361473#1 662251444#2 459923742 259734495 258407154 911408239#0 302762415#1 301981257#1 -167699927 167699930#3 301981265#0 " /> 
    <trip id="bus6" type="bus_bus" depart="60.00" departLane="best" from="360929409" to="301981265#0" via="269016270 368091905#1 499726265 49793804#2 777361473#1 662251444#2 459923742 259734495 258407154 911408239#0 302762415#1 301981257#1 -167699927 167699930#3 301981265#0 " /> 
    <trip id="bus7" type="bus_bus" depart="70.00" departLane="best" from="360929409" to="301981265#0" via="269016270 368091905#1 499726265 49793804#2 777361473#1 662251444#2 459923742 259734495 258407154 911408239#0 302762415#1 301981257#1 -167699927 167699930#3 301981265#0 " /> 
  
</routes>
