<?xml version="1.0" encoding="UTF-8"?>

<routes xmlns:xsi="http://www.w3.org/2001/XMLSchema-instance" xsi:noNamespaceSchemaLocation="http://sumo.dlr.de/xsd/routes_file.xsd">
    <vType id="bus_bus" vClass="bus" />
    <person id="HeadingBusstop1" depart="0.00" color="red">
        <personTrip from="982058337" to="167699930#3" modes="public"/>
    </person>
   <!--
       https://sumo.dlr.de/docs/Specification/Persons.html
       
  <personFlow id="person" begin="0" end="1" number="4" departPos="80">
       <walk from="2/3to1/3" to="1/3to0/3" arrivalPos="55"/>
       <ride from="1/3to0/3" to="0/4to1/4" lines="train0"/>
       <walk from="0/4to1/4" to="1/4to2/4" arrivalPos="45"/>
       <stop lane="1/4to2/4_0" duration="20" startPos="40" actType="singing"/>
       <ride from="1/4to2/4" to="3/4to4/4" lines="car0"/>
   </personFlow>
   -->

    <flow id="flow_bombeiros-ufsm" begin="0" end="3600" period="200" type="bus_bus" line="bus" departLane="best" from="360929409" to="301981265#0" via="982058337 358980528#0 980959028#0 978487722#0  49793804#1 372500759#0  199426663 919386387#1 181326563  181326569 303107781#5 258407154 911408239#0 302762415#1 301981257#1 167699928 167699930#3 301981265#0 ">
        <stop busStop="4083982305" until="100"/>
        <stop busStop="5366197376" until="200"/>
        <stop busStop="5361514763" until="300"/>
        <stop busStop="4945877795" until="400"/>
        <stop busStop="4696675292" until="500"/>
        <stop busStop="5286257146" until="600"/>
        <stop busStop="3729684442" until="700"/>
        <stop busStop="2435446332" until="800"/>
        <stop busStop="2435446333" until="900"/>
        <stop busStop="2435470839" until="1000"/>
        <stop busStop="2035590397" until="1100"/>
        <stop busStop="2449072192" until="1200"/>
        <stop busStop="2449072194" until="1300"/>
        <stop busStop="2449072196" until="1400"/>
        <stop busStop="2647914597" until="1500"/>
        <stop busStop="5557991904" until="1600"/>
        <stop busStop="4945812529" until="1700"/>
        <stop busStop="4945812528" until="1800"/>
        <stop busStop="2976399351" until="1900"/>        
        <stop busStop="2976399348" until="2000"/>
        <stop busStop="2976418641" until="2100"/>
        <stop busStop="4181552955" until="2200"/>
        <stop busStop="2071578441" until="2300"/>
        <stop busStop="3135882098" until="2400"/>
        <stop busStop="6512254738" until="2500"/>
        <stop busStop="3393237218" until="2600"/>
        <stop busStop="4544750287" until="2700"/>
        <stop busStop="1917492638" until="2800"/>
        <stop busStop="3743485949" until="2900"/>
        <stop busStop="3135882108" until="3000"/>
        <stop busStop="2976551190" until="3100"/>
        <stop busStop="2452978092" until="3200"/>
        <stop busStop="2452978323" until="3300"/>
        <stop busStop="2452978396" until="3400"/>
        <stop busStop="4210138292" until="3500"/>
        <stop busStop="3061763319" until="3600"/>
        <stop busStop="2400147129" until="3700"/>
        <stop busStop="3061763287" until="3800"/>

    </flow>
</routes>
