<?xml version="1.0" encoding="UTF-8"?>

<routes xmlns:xsi="http://www.w3.org/2001/XMLSchema-instance" xsi:noNamespaceSchemaLocation="http://sumo.dlr.de/xsd/routes_file.xsd">
    <vType id="bus_bus" vClass="bus" />
    <flow id="flow_bombeiros-ufsm" begin="0" end="3600" period="200" type="bus_bus" departLane="best" from="360929409" to="301981265#0" via="982058337 358980528#0 980959028#0 978487722#0  49793804#1 372500759#0  199426663 919386387#1 181326563  181326569 303107781#5 258407154 911408239#0 302762415#1 301981257#1 167699928 167699930#3 301981265#0 ">
        <stop busStop="2035590397"  until ="100"/>
        <stop busStop="2435446332"  until ="200"/>
        <stop busStop="2435446333"  until ="300"/>
        <stop busStop="2435470839"  until ="400"/>
        <stop busStop="2449072192"  until ="500"/>
        <stop busStop="2449072194"  until ="600"/>
        <stop busStop="2449072196"  until ="700"/>
        <stop busStop="2647914597"  until ="800"/>
        <stop busStop="3729684442"  until ="900"/>
        <stop busStop="4083982305"  until ="1000"/>
        <stop busStop="4696675292"  until ="1100"/>
        <stop busStop="4945877795"  until ="1200"/>
        <stop busStop="5286257146"  until ="1300"/>
        <stop busStop="5361514763"  until ="1400"/>
        <stop busStop="5366197376"  until ="1500"/>
        <stop busStop="5557991904"  until ="1600"/>

    </flow>
</routes>
