<?xml version="1.0" encoding="UTF-8"?>

<routes xmlns:xsi="http://www.w3.org/2001/XMLSchema-instance" xsi:noNamespaceSchemaLocation="http://sumo.dlr.de/xsd/routes_file.xsd">
    <vType id="bus_bus" vClass="bus"/>
    <!-- Rua Barão do Triunfo - Avenida Duque de Caxias  -->
    <trip id="bus0" type="bus_bus" depart="0.00" departLane="best" from="360929409" to="269016270"/>
    <!-- Avenida Duque de Caxias - Avenida Presidente Vargas -->
    <trip id="bus1" type="bus_bus" depart="0.00" departLane="best" from="269016270" to="368091905#1"/>
    <!-- Avenida Presidente Vargas - Rua do Acampamento -->
    <trip id="bus2" type="bus_bus" depart="0.00" departLane="best" from="368091905#1" to="499726265"/>
    <!-- Rua do Acampamento - Avenida Nossa Senhora Medianeira -->
    <trip id="bus3" type="bus_bus" depart="0.00" departLane="best" from="499726265" to="49793804#2"/>
    <!-- Avenida Nossa Senhora Medianeira - Avenida Prefeito Evandro Behr -->
    <trip id="bus4" type="bus_bus" depart="0.00" departLane="best" from="49793804#2" to="547917912#4"/>
    <!-- Avenida Prefeito Evandro Behr - Rua Sul 35 -->
    <trip id="bus5" type="bus_bus" depart="0.00" departLane="best" from="547917912#4" to="301981265#0"/> 

    
</routes>
