<?xml version="1.0" encoding="UTF-8"?>

<!-- generated on 2021-10-04 23:35:02 by Eclipse SUMO duarouter Version 1.10.0
<configuration xmlns:xsi="http://www.w3.org/2001/XMLSchema-instance" xsi:noNamespaceSchemaLocation="http://sumo.dlr.de/xsd/duarouterConfiguration.xsd">

    <input>
        <net-file value="C:\Users\aliss\Sumo\2021-10-04-23-34-15\osm.net.xml"/>
        <route-files value="C:\Users\aliss\Sumo\2021-10-04-23-34-15\osm.bus.trips.xml"/>
    </input>

    <output>
        <output-file value="C:\Users\aliss\Sumo\2021-10-04-23-34-15\osm.bus.trips.xml.tmp"/>
        <write-trips value="true"/>
    </output>

    <time>
        <begin value="0"/>
        <end value="3600"/>
    </time>

    <report>
        <no-warnings value="true"/>
        <ignore-errors value="true"/>
        <no-step-log value="true"/>
    </report>

</configuration>
-->

<routes xmlns:xsi="http://www.w3.org/2001/XMLSchema-instance" xsi:noNamespaceSchemaLocation="http://sumo.dlr.de/xsd/routes_file.xsd">
    <vType id="bus_bus" vClass="bus"/>
    <trip id="bus0" type="bus_bus" depart="0.00" departLane="best" from="207227890#3" to="-181347088#3"/>
    <trip id="bus1" type="bus_bus" depart="1.28" departLane="best" from="-303174868#0" to="-219393100#0"/>
    <trip id="bus2" type="bus_bus" depart="2.55" departLane="best" from="301981267#1" to="225821949#2"/>
    <trip id="bus3" type="bus_bus" depart="3.83" departLane="best" from="478958727#1" to="-193139489#0"/>
    <trip id="bus4" type="bus_bus" depart="5.11" departLane="best" from="167025842#4" to="-181355824#1"/>
    <trip id="bus5" type="bus_bus" depart="6.38" departLane="best" departSpeed="max" from="-226740774" to="193131668#1"/>
    <trip id="bus6" type="bus_bus" depart="7.66" departLane="best" from="207227944#3" to="193447771#1"/>
    <trip id="bus7" type="bus_bus" depart="8.94" departLane="best" from="-231532890#3" to="204269350#6"/>
    <trip id="bus8" type="bus_bus" depart="10.21" departLane="best" departSpeed="max" from="360935211#0" to="-167025835#5"/>
    <trip id="bus9" type="bus_bus" depart="11.49" departLane="best" from="360924349#2" to="240733802"/>
    <trip id="bus10" type="bus_bus" depart="12.77" departLane="best" from="-389758030#1" to="-204398624#0"/>
    <trip id="bus11" type="bus_bus" depart="14.04" departLane="best" from="822002095" to="-372500447#0"/>
    <trip id="bus12" type="bus_bus" depart="15.32" departLane="best" from="373061797#1" to="204398655#2"/>
    <trip id="bus13" type="bus_bus" depart="16.60" departLane="best" from="360926380#4" to="301511505"/>
    <trip id="bus14" type="bus_bus" depart="17.87" departLane="best" from="193218449#0" to="919386387#0"/>
    <trip id="bus15" type="bus_bus" depart="19.15" departLane="best" departSpeed="max" from="-569156531#3" to="196865714#8"/>
    <trip id="bus16" type="bus_bus" depart="20.43" departLane="best" from="367232909#2" to="205672771#1"/>
    <trip id="bus17" type="bus_bus" depart="21.71" departLane="best" from="390564837#0" to="200672745#2"/>
    <trip id="bus18" type="bus_bus" depart="22.98" departLane="best" from="259225198#0" to="-191114811#0"/>
    <trip id="bus19" type="bus_bus" depart="24.26" departLane="best" from="-239625514#2" to="-305172096#3"/>
    <trip id="bus20" type="bus_bus" depart="25.54" departLane="best" from="-193139466#0" to="-231875871#1"/>
    <trip id="bus21" type="bus_bus" depart="26.81" departLane="best" departSpeed="max" from="-193809812" to="-303105496#0"/>
    <trip id="bus22" type="bus_bus" depart="28.09" departLane="best" departSpeed="max" from="207227880#0" to="-462094343#3"/>
    <trip id="bus23" type="bus_bus" depart="29.37" departLane="best" from="-50301278#2" to="-207251652#1"/>
    <trip id="bus24" type="bus_bus" depart="30.64" departLane="best" from="-303099171#0" to="623687226#1"/>
    <trip id="bus25" type="bus_bus" depart="31.92" departLane="best" from="207227937#2" to="204398678#10"/>
    <trip id="bus26" type="bus_bus" depart="33.20" departLane="best" from="-207227865#6" to="301511504"/>
    <trip id="bus27" type="bus_bus" depart="34.47" departLane="best" from="-205672769#13" to="-528478344"/>
    <trip id="bus28" type="bus_bus" depart="35.75" departLane="best" from="981703530" to="207227896#0"/>
    <trip id="bus29" type="bus_bus" depart="37.03" departLane="best" from="197203441" to="231672162#0"/>
    <trip id="bus30" type="bus_bus" depart="38.30" departLane="best" from="372500758#1" to="327086015#0"/>
    <trip id="bus31" type="bus_bus" depart="39.58" departLane="best" departSpeed="max" from="-240164150" to="-182397410#4"/>
    <trip id="bus32" type="bus_bus" depart="40.86" departLane="best" from="-363479168#2" to="-303082572#0"/>
    <trip id="bus33" type="bus_bus" depart="42.13" departLane="best" from="-207251667#1" to="651568228#1"/>
    <trip id="bus34" type="bus_bus" depart="43.41" departLane="best" from="446229614#4" to="-361822383#0"/>
    <trip id="bus35" type="bus_bus" depart="44.69" departLane="best" from="207251644#2" to="-705551511#1"/>
    <trip id="bus36" type="bus_bus" depart="45.96" departLane="best" from="504333065#2" to="182580899#0"/>
    <trip id="bus37" type="bus_bus" depart="47.24" departLane="best" from="-303082613#5" to="-259470125"/>
    <trip id="bus38" type="bus_bus" depart="48.52" departLane="best" from="199341669#2" to="-297172961#8"/>
    <trip id="bus39" type="bus_bus" depart="49.79" departLane="best" departSpeed="max" from="204266521#0" to="479619659#2"/>
    <trip id="bus40" type="bus_bus" depart="51.07" departLane="best" from="-959040307#0" to="-207251673#1"/>
    <trip id="bus41" type="bus_bus" depart="52.35" departLane="best" departSpeed="max" from="988153031#0" to="193133897#0"/>
    <trip id="bus42" type="bus_bus" depart="53.62" departLane="best" from="-193218144#7" to="-192657712#7"/>
    <trip id="bus43" type="bus_bus" depart="54.90" departLane="best" from="-197203430#0" to="207227865#8"/>
    <trip id="bus44" type="bus_bus" depart="56.18" departLane="best" departSpeed="max" from="352910621#0" to="167025813#4"/>
    <trip id="bus45" type="bus_bus" depart="57.45" departLane="best" from="-193065653#1" to="-543417464"/>
    <trip id="bus46" type="bus_bus" depart="58.73" departLane="best" departSpeed="max" from="987380647#0" to="193216192#5"/>
    <trip id="bus47" type="bus_bus" depart="60.01" departLane="best" from="919094719" to="390523331"/>
    <trip id="bus48" type="bus_bus" depart="61.29" departLane="best" from="-181341695#0" to="296181223#1"/>
    <trip id="bus49" type="bus_bus" depart="62.56" departLane="best" from="231666002" to="193218445#0"/>
    <trip id="bus50" type="bus_bus" depart="63.84" departLane="best" from="-303099168" to="207227901#1"/>
    <trip id="bus51" type="bus_bus" depart="65.12" departLane="best" departSpeed="max" from="182410586#0" to="758726401"/>
    <trip id="bus52" type="bus_bus" depart="66.39" departLane="best" departSpeed="max" from="429888406" to="-297176956#3"/>
    <trip id="bus53" type="bus_bus" depart="67.67" departLane="best" from="193131252" to="-207227862#6"/>
    <trip id="bus54" type="bus_bus" depart="68.95" departLane="best" from="504033189" to="406874975#1"/>
    <trip id="bus55" type="bus_bus" depart="70.22" departLane="best" from="-353056384#3" to="207227892#7"/>
    <trip id="bus56" type="bus_bus" depart="71.50" departLane="best" departSpeed="max" from="204398675#0" to="-204398601#8"/>
    <trip id="bus57" type="bus_bus" depart="72.78" departLane="best" departSpeed="max" from="303553306" to="193218449#1"/>
    <trip id="bus58" type="bus_bus" depart="74.05" departLane="best" departSpeed="max" from="330357696" to="193218140#2"/>
    <trip id="bus59" type="bus_bus" depart="75.33" departLane="best" from="-162070715#1" to="-363483827#2"/>
    <trip id="bus60" type="bus_bus" depart="76.61" departLane="best" from="-181347082#4" to="547917916#0"/>
    <trip id="bus61" type="bus_bus" depart="77.88" departLane="best" from="457948144" to="368091908#2"/>
    <trip id="bus62" type="bus_bus" depart="79.16" departLane="best" from="-363456592#0" to="-193032297"/>
    <trip id="bus63" type="bus_bus" depart="80.44" departLane="best" from="457935897#0" to="681285286#0"/>
    <trip id="bus64" type="bus_bus" depart="81.71" departLane="best" from="-193139491" to="193030329#2"/>
    <trip id="bus65" type="bus_bus" depart="82.99" departLane="best" departSpeed="max" from="-193131676#1" to="305085771#8"/>
    <trip id="bus66" type="bus_bus" depart="84.27" departLane="best" from="305172076#0" to="-199419806"/>
    <trip id="bus67" type="bus_bus" depart="85.54" departLane="best" from="193026200#4" to="194907257#4"/>
    <trip id="bus68" type="bus_bus" depart="86.82" departLane="best" from="-303099162#0" to="412089752#1"/>
    <trip id="bus69" type="bus_bus" depart="88.10" departLane="best" from="167025849#0" to="-207251656#8"/>
    <trip id="bus70" type="bus_bus" depart="89.37" departLane="best" from="193302556#3" to="301511505"/>
    <trip id="bus71" type="bus_bus" depart="90.65" departLane="best" from="-207246950#9" to="-360378528#0"/>
    <trip id="bus72" type="bus_bus" depart="91.93" departLane="best" from="986915351" to="207227937#5"/>
    <trip id="bus73" type="bus_bus" depart="93.20" departLane="best" from="181347077#2" to="193138294#1"/>
    <trip id="bus74" type="bus_bus" depart="94.48" departLane="best" from="-199353266#8" to="-223683197#0"/>
    <trip id="bus75" type="bus_bus" depart="95.76" departLane="best" departSpeed="max" from="-387527919" to="204269348#1"/>
    <trip id="bus76" type="bus_bus" depart="97.03" departLane="best" from="-240164164#1" to="-207251675#5"/>
    <trip id="bus77" type="bus_bus" depart="98.31" departLane="best" departSpeed="max" from="-193134675#2" to="207227876#12"/>
    <trip id="bus78" type="bus_bus" depart="99.59" departLane="best" from="-240164146#1" to="49793790#2"/>
    <trip id="bus79" type="bus_bus" depart="100.87" departLane="best" from="-259225198#0" to="207251671#0"/>
    <trip id="bus80" type="bus_bus" depart="102.14" departLane="best" from="-207251678#0" to="-200672755#1"/>
    <trip id="bus81" type="bus_bus" depart="103.42" departLane="best" from="630340602#0" to="199419804#1"/>
    <trip id="bus82" type="bus_bus" depart="104.70" departLane="best" from="192657712#7" to="346678754#1"/>
    <trip id="bus83" type="bus_bus" depart="105.97" departLane="best" from="360926380#8" to="-207227890#11"/>
    <trip id="bus84" type="bus_bus" depart="107.25" departLane="best" from="-193218451" to="167025852#1"/>
    <trip id="bus85" type="bus_bus" depart="108.53" departLane="best" from="167025852#0" to="184515335#3"/>
    <trip id="bus86" type="bus_bus" depart="109.80" departLane="best" from="297172961#7" to="207251692#8"/>
    <trip id="bus87" type="bus_bus" depart="111.08" departLane="best" departSpeed="max" from="978268642#0" to="-193218446#12"/>
    <trip id="bus88" type="bus_bus" depart="112.36" departLane="best" from="-978228151#1" to="-373061797#2"/>
    <trip id="bus89" type="bus_bus" depart="113.63" departLane="best" from="390564832#1" to="-259850252#3"/>
    <trip id="bus90" type="bus_bus" depart="114.91" departLane="best" departSpeed="max" from="-207227923" to="181347086#1"/>
    <trip id="bus91" type="bus_bus" depart="116.19" departLane="best" from="167025842#3" to="-303105502#0"/>
    <trip id="bus92" type="bus_bus" depart="117.46" departLane="best" from="-296181230#0" to="540758086"/>
    <trip id="bus93" type="bus_bus" depart="118.74" departLane="best" from="181347086#2" to="390526206#1"/>
    <trip id="bus94" type="bus_bus" depart="120.02" departLane="best" from="196865723#10" to="-193030325#0"/>
    <trip id="bus95" type="bus_bus" depart="121.29" departLane="best" from="988833016#1" to="368494310#1"/>
    <trip id="bus96" type="bus_bus" depart="122.57" departLane="best" from="911320135" to="547478011#0"/>
    <trip id="bus97" type="bus_bus" depart="123.85" departLane="best" from="373701300#4" to="-204398684#3"/>
    <trip id="bus98" type="bus_bus" depart="125.12" departLane="best" from="193032294#1" to="-207251659#8"/>
    <trip id="bus99" type="bus_bus" depart="126.40" departLane="best" from="-967661045" to="-193032298#7"/>
    <trip id="bus100" type="bus_bus" depart="127.68" departLane="best" from="-587355283" to="978462764#0"/>
    <trip id="bus101" type="bus_bus" depart="128.95" departLane="best" from="-303099162#1" to="344153346#0"/>
    <trip id="bus102" type="bus_bus" depart="130.23" departLane="best" from="183192481#11" to="167025821#4"/>
    <trip id="bus103" type="bus_bus" depart="131.51" departLane="best" from="822002096#1" to="984935545#0"/>
    <trip id="bus104" type="bus_bus" depart="132.78" departLane="best" from="197203434#0" to="296181208#3"/>
    <trip id="bus105" type="bus_bus" depart="134.06" departLane="best" from="-204398675#4" to="-327086016"/>
    <trip id="bus107" type="bus_bus" depart="136.61" departLane="best" from="193325083" to="303099158#1"/>
    <trip id="bus108" type="bus_bus" depart="137.89" departLane="best" departSpeed="max" from="-193032296#1" to="204266522"/>
    <trip id="bus109" type="bus_bus" depart="139.17" departLane="best" departSpeed="max" from="193131672#0" to="377044936#1"/>
    <trip id="bus110" type="bus_bus" depart="140.45" departLane="best" from="-204398684#2" to="869364124#1"/>
    <trip id="bus111" type="bus_bus" depart="141.72" departLane="best" from="-193139466#3" to="-207227876#9"/>
    <trip id="bus112" type="bus_bus" depart="143.00" departLane="best" from="204269362#3" to="221413755#8"/>
    <trip id="bus113" type="bus_bus" depart="144.28" departLane="best" from="-256388722#1" to="-199341668#1"/>
    <trip id="bus114" type="bus_bus" depart="145.55" departLane="best" from="478958721#2" to="-259470109#1"/>
    <trip id="bus115" type="bus_bus" depart="146.83" departLane="best" from="204269361#4" to="205672776#1"/>
    <trip id="bus116" type="bus_bus" depart="148.11" departLane="best" from="167025831#0" to="204266519#1"/>
    <trip id="bus117" type="bus_bus" depart="149.38" departLane="best" from="193139506#3" to="587355292"/>
    <trip id="bus118" type="bus_bus" depart="150.66" departLane="best" from="-207251652#10" to="286673108#0-AddedOffRampEdge"/>
    <trip id="bus119" type="bus_bus" depart="151.94" departLane="best" from="-259387144#1" to="-705551511#3"/>
    <trip id="bus120" type="bus_bus" depart="153.21" departLane="best" from="207251692#5" to="-338152098#17"/>
    <trip id="bus121" type="bus_bus" depart="154.49" departLane="best" from="-363483827#4" to="303105493#2"/>
    <trip id="bus122" type="bus_bus" depart="155.77" departLane="best" from="-193136465#1" to="182397413#1"/>
    <trip id="bus124" type="bus_bus" depart="158.32" departLane="best" departSpeed="max" from="-193136466#1" to="-207251659#1"/>
    <trip id="bus125" type="bus_bus" depart="159.60" departLane="best" from="-303099162#1" to="569156536#1"/>
    <trip id="bus126" type="bus_bus" depart="160.87" departLane="best" from="459839153#0" to="457935897#1"/>
    <trip id="bus127" type="bus_bus" depart="162.15" departLane="best" from="-49931951#1" to="-204398640"/>
    <trip id="bus128" type="bus_bus" depart="163.43" departLane="best" from="368284014#3" to="256986083#4"/>
    <trip id="bus129" type="bus_bus" depart="164.70" departLane="best" departSpeed="max" from="204398681#0" to="979885209"/>
    <trip id="bus130" type="bus_bus" depart="165.98" departLane="best" from="207243785#1" to="-167025842#5"/>
    <trip id="bus131" type="bus_bus" depart="167.26" departLane="best" from="363468031" to="-338152095#6"/>
    <trip id="bus132" type="bus_bus" depart="168.53" departLane="best" departSpeed="max" from="207251661#0" to="647894842#0"/>
    <trip id="bus133" type="bus_bus" depart="169.81" departLane="best" departSpeed="max" from="-204266535#1" to="-197203436#0"/>
    <trip id="bus134" type="bus_bus" depart="171.09" departLane="best" from="-303174856#12" to="204398664#8"/>
    <trip id="bus135" type="bus_bus" depart="172.36" departLane="best" departSpeed="max" from="296181206#0" to="-207240162#0"/>
    <trip id="bus136" type="bus_bus" depart="173.64" departLane="best" from="207227876#5" to="-297176957#0"/>
    <trip id="bus137" type="bus_bus" depart="174.92" departLane="best" departSpeed="max" from="193032305" to="49793790#0"/>
    <trip id="bus138" type="bus_bus" depart="176.19" departLane="best" from="372510396#2" to="-193218143#0"/>
    <trip id="bus139" type="bus_bus" depart="177.47" departLane="best" from="167025852#0" to="-303099176#0"/>
    <trip id="bus140" type="bus_bus" depart="178.75" departLane="best" from="-167025826#1" to="307757213"/>
    <trip id="bus141" type="bus_bus" depart="180.03" departLane="best" departSpeed="max" from="207227883#0" to="-297171380#1"/>
    <trip id="bus142" type="bus_bus" depart="181.30" departLane="best" from="303082582#3" to="196865714#4"/>
    <trip id="bus143" type="bus_bus" depart="182.58" departLane="best" from="181326559#3" to="-167596741#0"/>
    <trip id="bus144" type="bus_bus" depart="183.86" departLane="best" from="-193138283" to="459839153#2"/>
    <trip id="bus145" type="bus_bus" depart="185.13" departLane="best" from="49793799" to="193809812"/>
    <trip id="bus146" type="bus_bus" depart="186.41" departLane="best" from="368284016#3" to="204266514#0"/>
    <trip id="bus147" type="bus_bus" depart="187.69" departLane="best" from="-204398632#0" to="-199352111#0"/>
    <trip id="bus148" type="bus_bus" depart="188.96" departLane="best" from="-363458497#4" to="487584708#3"/>
    <trip id="bus149" type="bus_bus" depart="190.24" departLane="best" from="353057424#1" to="390523329"/>
    <trip id="bus150" type="bus_bus" depart="191.52" departLane="best" from="488147301" to="-207251652#5"/>
    <trip id="bus151" type="bus_bus" depart="192.79" departLane="best" from="-296181228#0" to="-193220752#1"/>
    <trip id="bus152" type="bus_bus" depart="194.07" departLane="best" from="338152094" to="459923738#2"/>
    <trip id="bus153" type="bus_bus" depart="195.35" departLane="best" departSpeed="max" from="-981703532" to="205672783#2"/>
    <trip id="bus154" type="bus_bus" depart="196.62" departLane="best" from="-204398675#1" to="548552297#4"/>
    <trip id="bus155" type="bus_bus" depart="197.90" departLane="best" from="391275417#0" to="955920875"/>
    <trip id="bus156" type="bus_bus" depart="199.18" departLane="best" from="361269642" to="457966395#4"/>
    <trip id="bus157" type="bus_bus" depart="200.45" departLane="best" from="-181355803#7" to="303051007#1"/>
    <trip id="bus158" type="bus_bus" depart="201.73" departLane="best" from="-373701302#0" to="568381692#0"/>
    <trip id="bus159" type="bus_bus" depart="203.01" departLane="best" from="358981142#0" to="390564839"/>
    <trip id="bus160" type="bus_bus" depart="204.28" departLane="best" departSpeed="max" from="348788933" to="-194356985#0"/>
    <trip id="bus161" type="bus_bus" depart="205.56" departLane="best" from="415602884#1" to="387563054#1"/>
    <trip id="bus162" type="bus_bus" depart="206.84" departLane="best" from="-231672162#2" to="363468032#1"/>
    <trip id="bus163" type="bus_bus" depart="208.11" departLane="best" from="184515323#6" to="-350463977#2"/>
    <trip id="bus164" type="bus_bus" depart="209.39" departLane="best" from="353057405#1" to="-231665993#0"/>
    <trip id="bus165" type="bus_bus" depart="210.67" departLane="best" from="-181347090#4" to="-207227893#3"/>
    <trip id="bus166" type="bus_bus" depart="211.94" departLane="best" from="-372486232#0" to="390564841#0"/>
    <trip id="bus167" type="bus_bus" depart="213.22" departLane="best" from="910969946" to="-303109575#0"/>
    <trip id="bus168" type="bus_bus" depart="214.50" departLane="best" departSpeed="max" from="207227893#0" to="-850215563#0"/>
    <trip id="bus169" type="bus_bus" depart="215.78" departLane="best" from="978225969#1" to="193218443#2"/>
    <trip id="bus170" type="bus_bus" depart="217.05" departLane="best" from="648290387#1" to="-197203436#0"/>
    <trip id="bus171" type="bus_bus" depart="218.33" departLane="best" from="919032672" to="-207227862#5"/>
    <trip id="bus172" type="bus_bus" depart="219.61" departLane="best" from="909086968" to="-301981249#4"/>
    <trip id="bus173" type="bus_bus" depart="220.88" departLane="best" departSpeed="max" from="-197203419" to="181326559#2"/>
    <trip id="bus174" type="bus_bus" depart="222.16" departLane="best" from="297172961#1" to="-361063412#0"/>
    <trip id="bus175" type="bus_bus" depart="223.44" departLane="best" from="204398664#6" to="193136464#4"/>
    <trip id="bus176" type="bus_bus" depart="224.71" departLane="best" from="-697630097#0" to="200621148#3"/>
    <trip id="bus177" type="bus_bus" depart="225.99" departLane="best" from="-297176957#1" to="259401636"/>
    <trip id="bus178" type="bus_bus" depart="227.27" departLane="best" from="-167025821#1" to="543429452"/>
    <trip id="bus179" type="bus_bus" depart="228.54" departLane="best" from="193220752#1" to="296181215"/>
    <trip id="bus180" type="bus_bus" depart="229.82" departLane="best" departSpeed="max" from="303082583#0" to="207251675#3"/>
    <trip id="bus181" type="bus_bus" depart="231.10" departLane="best" from="-478958723#2" to="-193065698"/>
    <trip id="bus182" type="bus_bus" depart="232.37" departLane="best" from="207251663#1" to="-366533961"/>
    <trip id="bus183" type="bus_bus" depart="233.65" departLane="best" from="-363472907#0" to="372770973"/>
    <trip id="bus184" type="bus_bus" depart="234.93" departLane="best" from="296181214#2" to="-338152098#5"/>
    <trip id="bus185" type="bus_bus" depart="236.20" departLane="best" from="-363460872#2" to="-978225969#0"/>
    <trip id="bus186" type="bus_bus" depart="237.48" departLane="best" from="-978228150" to="-319385689#1"/>
    <trip id="bus187" type="bus_bus" depart="238.76" departLane="best" from="-204266498#3" to="162070693"/>
    <trip id="bus188" type="bus_bus" depart="240.03" departLane="best" from="651568225#2" to="225971204"/>
    <trip id="bus189" type="bus_bus" depart="241.31" departLane="best" from="49793790#2" to="205672764#2"/>
    <trip id="bus190" type="bus_bus" depart="242.59" departLane="best" from="-353057413#1" to="194338160#2"/>
    <trip id="bus191" type="bus_bus" depart="243.86" departLane="best" from="-162070698#1" to="-305135153#0"/>
    <trip id="bus192" type="bus_bus" depart="245.14" departLane="best" from="181326586#1" to="204266498#4"/>
    <trip id="bus193" type="bus_bus" depart="246.42" departLane="best" from="207246950#3" to="184515323#6"/>
    <trip id="bus194" type="bus_bus" depart="247.69" departLane="best" from="181347083#7" to="-207251659#8"/>
    <trip id="bus195" type="bus_bus" depart="248.97" departLane="best" from="193023733#0" to="492698113#1"/>
    <trip id="bus196" type="bus_bus" depart="250.25" departLane="best" from="353057424#0" to="-205672759#0"/>
    <trip id="bus197" type="bus_bus" depart="251.52" departLane="best" departSpeed="max" from="-193139484#1" to="193138287#0"/>
    <trip id="bus198" type="bus_bus" depart="252.80" departLane="best" from="207227875#2" to="-371530859#3"/>
    <trip id="bus199" type="bus_bus" depart="254.08" departLane="best" from="363472906#0" to="303099174#4"/>
    <trip id="bus200" type="bus_bus" depart="255.36" departLane="best" departSpeed="max" from="219393100#0" to="-223683197#0"/>
    <trip id="bus201" type="bus_bus" depart="256.63" departLane="best" from="-207243783#0" to="-181347088#0"/>
    <trip id="bus202" type="bus_bus" depart="257.91" departLane="best" departSpeed="max" from="-296181204#5" to="191114810#3"/>
    <trip id="bus203" type="bus_bus" depart="259.19" departLane="best" from="162070724" to="207227871#9"/>
    <trip id="bus204" type="bus_bus" depart="260.46" departLane="best" departSpeed="max" from="-207227940#1" to="240164170#2"/>
    <trip id="bus205" type="bus_bus" depart="261.74" departLane="best" from="193065646#2" to="-259225198#2"/>
    <trip id="bus206" type="bus_bus" depart="263.02" departLane="best" from="207251645#5" to="-167025834#0"/>
    <trip id="bus207" type="bus_bus" depart="264.29" departLane="best" from="303099162#2" to="305176903#0"/>
    <trip id="bus208" type="bus_bus" depart="265.57" departLane="best" from="-197203403#0" to="167025826#5"/>
    <trip id="bus209" type="bus_bus" depart="266.85" departLane="best" from="-207227876#7" to="822002099#0"/>
    <trip id="bus210" type="bus_bus" depart="268.12" departLane="best" from="193139475#1" to="-193030324#5"/>
    <trip id="bus211" type="bus_bus" depart="269.40" departLane="best" from="-296181223#6" to="373061797#2"/>
    <trip id="bus212" type="bus_bus" depart="270.68" departLane="best" from="183216540#2" to="358981141#0"/>
    <trip id="bus213" type="bus_bus" depart="271.95" departLane="best" from="207251671#0" to="980964296"/>
    <trip id="bus214" type="bus_bus" depart="273.23" departLane="best" departSpeed="max" from="204269363#0" to="699104402#0"/>
    <trip id="bus215" type="bus_bus" depart="274.51" departLane="best" from="478958725#2" to="204398689#4"/>
    <trip id="bus216" type="bus_bus" depart="275.78" departLane="best" departSpeed="max" from="296181214#0" to="193131251#0"/>
    <trip id="bus217" type="bus_bus" depart="277.06" departLane="best" from="368091888#4-AddedOnRampEdge" to="194338160#1"/>
    <trip id="bus218" type="bus_bus" depart="278.34" departLane="best" from="487732371" to="303082595#6"/>
    <trip id="bus219" type="bus_bus" depart="279.61" departLane="best" from="193026199#1" to="-296183697#1"/>
    <trip id="bus220" type="bus_bus" depart="280.89" departLane="best" from="-296181219#0" to="207227891#5"/>
    <trip id="bus221" type="bus_bus" depart="282.17" departLane="best" from="305172076#0" to="193139471#2"/>
    <trip id="bus222" type="bus_bus" depart="283.44" departLane="best" from="207227859#3" to="-303099166#4"/>
    <trip id="bus223" type="bus_bus" depart="284.72" departLane="best" departSpeed="max" from="-193138291#2" to="-303553306"/>
    <trip id="bus224" type="bus_bus" depart="286.00" departLane="best" from="-303174853" to="-363462602#5"/>
    <trip id="bus225" type="bus_bus" depart="287.27" departLane="best" departSpeed="max" from="193302931" to="-204266520#1"/>
    <trip id="bus226" type="bus_bus" depart="288.55" departLane="best" from="259387144#7" to="-193032317#0"/>
    <trip id="bus227" type="bus_bus" depart="289.83" departLane="best" departSpeed="max" from="-981857628" to="193309354"/>
    <trip id="bus228" type="bus_bus" depart="291.10" departLane="best" from="167025821#0" to="-207251645#5"/>
    <trip id="bus229" type="bus_bus" depart="292.38" departLane="best" from="167025834#1" to="49732814#0"/>
    <trip id="bus230" type="bus_bus" depart="293.66" departLane="best" from="204266520#0" to="240164168#1"/>
    <trip id="bus231" type="bus_bus" depart="294.94" departLane="best" from="387563049#1" to="305172092#0"/>
    <trip id="bus232" type="bus_bus" depart="296.21" departLane="best" from="-623687226#0" to="-167025834#0"/>
    <trip id="bus233" type="bus_bus" depart="297.49" departLane="best" departSpeed="max" from="-424816480#1" to="303107781#2"/>
    <trip id="bus234" type="bus_bus" depart="298.77" departLane="best" from="379100158#2" to="747965574"/>
    <trip id="bus235" type="bus_bus" depart="300.04" departLane="best" from="167025828#3" to="303084952#5"/>
    <trip id="bus236" type="bus_bus" depart="301.32" departLane="best" departSpeed="max" from="194356985#0" to="204398651#4"/>
    <trip id="bus237" type="bus_bus" depart="302.60" departLane="best" departSpeed="max" from="-231665993#1" to="-207251673#2"/>
    <trip id="bus238" type="bus_bus" depart="303.87" departLane="best" from="181347067#3" to="-181355817#1"/>
    <trip id="bus239" type="bus_bus" depart="305.15" departLane="best" from="-377878522#4" to="226668203#2"/>
    <trip id="bus240" type="bus_bus" depart="306.43" departLane="best" departSpeed="max" from="-978428425" to="-204398681#0"/>
    <trip id="bus241" type="bus_bus" depart="307.70" departLane="best" from="186395216#8" to="-199353266#5"/>
    <trip id="bus242" type="bus_bus" depart="308.98" departLane="best" from="205672776#3" to="-181355803#5"/>
    <trip id="bus243" type="bus_bus" depart="310.26" departLane="best" from="-869364124#0" to="199341680#4"/>
    <trip id="bus244" type="bus_bus" depart="311.53" departLane="best" from="-181355822#7" to="207227906#11"/>
    <trip id="bus245" type="bus_bus" depart="312.81" departLane="best" from="-204269348#2" to="183216540#3"/>
    <trip id="bus246" type="bus_bus" depart="314.09" departLane="best" from="-193030325#2" to="-510327446"/>
    <trip id="bus247" type="bus_bus" depart="315.36" departLane="best" from="303174864#1" to="-510327446"/>
    <trip id="bus248" type="bus_bus" depart="316.64" departLane="best" from="303099166#7" to="368091913#3"/>
    <trip id="bus249" type="bus_bus" depart="317.92" departLane="best" from="-297172961#0" to="-193138295#0"/>
    <trip id="bus250" type="bus_bus" depart="319.19" departLane="best" from="-181347082#3" to="193218450#0"/>
    <trip id="bus251" type="bus_bus" depart="320.47" departLane="best" from="989405402#1" to="-390564840#1"/>
    <trip id="bus252" type="bus_bus" depart="321.75" departLane="best" from="207227944#6" to="342138976"/>
    <trip id="bus253" type="bus_bus" depart="323.02" departLane="best" from="207240160#1" to="303174845"/>
    <trip id="bus254" type="bus_bus" depart="324.30" departLane="best" departSpeed="max" from="698665711#0" to="-207227940#0"/>
    <trip id="bus255" type="bus_bus" depart="325.58" departLane="best" from="-181347083#6" to="-204398601#3"/>
    <trip id="bus256" type="bus_bus" depart="326.85" departLane="best" from="-200672755#1" to="207251671#6"/>
    <trip id="bus257" type="bus_bus" depart="328.13" departLane="best" departSpeed="max" from="199341700#0" to="-207251669#4"/>
    <trip id="bus258" type="bus_bus" depart="329.41" departLane="best" departSpeed="max" from="256539026" to="305176888#1"/>
    <trip id="bus259" type="bus_bus" depart="330.68" departLane="best" departSpeed="max" from="-205672793#1" to="204398672#0"/>