<?xml version="1.0" encoding="UTF-8"?>

<routes xmlns:xsi="http://www.w3.org/2001/XMLSchema-instance" xsi:noNamespaceSchemaLocation="http://sumo.dlr.de/xsd/routes_file.xsd">
    <vType id="bus_bus" vClass="bus" />

    <flow id="flow_bombeiros-ufsm"   begin="0" end="3600" period="10" type="bus_bus" departLane="best" from="360929409" to="301981265#0">
        <route edges="
            360929409 982058337 358981135 982058336 358980528#0 269016270 259426346#0 259426346#1 259426346#2 358980056#0 358980056#1 358980056#2 980959028#0 
            368091905#1 344153330#1 368559565#1 344153329#0 540758088#0 540758088#1 540758086 978487723#0 978487723#1 55354008 369024790#0 369024790#1 369024790#2 978487722#0
            499726265 231972355#0 231972355#1 49793804#1 49793804#2 507082099 301521095#0 301521095#2 368494308#0 368494308#2 365729211#1 471955628 240532999#0 966846614 368486584#2 368486584#3
            224088356 305435187#1 305435187#2 305435187#3 305435187#4 979885209 497029975 777361473#0 777361473#1 50301285#1 662251444#0 662251444#1 662251444#2 371535957#0
             371535957#1 371535957#2 371535957#3 478958532#1 478958532#2 478958532#3 478958532#4 979887656 372500759#0 372500759#1 372500759#2 372500759#3 372500759#4 987737564#0 987737564#1 293769043 199426663 
             459839153#0 459839153#1 459839153#2 459923738#0 459923738#1 459923738#2 459923738#3 256533924#0 256533924#1 256533924#2 662414697 684791417 459923735#0 459923735#1 459923735#2
             919386387#0 919386387#1 259733754#0 259733754#1 259733754#2 412089750#0 412089750#1 984457763#0 984457763#1 363481691#1 363481691#2 363481691#3 363481691#4 363481691#5 363481691#6
             363481691#8 363481691#9 363481691#10 363481691#11  363481691#12 303099158#0 303099158#1 303099158#2 303099158#3 303099158#4 303099158#5 303099159#1 303099159#2 303089270#2 569156536#0
             569156536#1 569156536#2 569156536#3  569156536#4 569156536#5 363480437#0 363480437#1 363480437#2 363480437#3 363480437#4 363480437#6 303082590#1 303082590#2
             259470104#1 303082591#2 569156538 259470103#1 259470103#2 259470103#3 259470103#5 199426665 459839140 31621170 476164951#0 476164951#1 368091884  
             547917917 gneE2 gneE3 181326570 646954133#2 987759135#0 987759135#1 303082587#1 303082587#2 181326563 547917916#2 547917915
            368091888#0-AddedOffRampEdge  181326562 545371937#2 545371937#3 303107781#0 303107781#1 303107781#2 303107781#3 303107781#4 303107781#5 303082585#1 303082585#2
            303082585#3 303082585#4 303082585#5 303082585#6 303082585#7 303082585#8 303082593#0 303082593#1 303082593#2 268960866 258407154 
            911407630#0 911407630#1 294542315 167699932 911408239#0 911408239#1 368091908#0 368091908#1 368091908#2 911408240 302762415#1  301981522#1 182410559#0
            301981259 410386372 301981257#0 301981257#1 479175845#0 479175845#1 167699928 167699929 167699930#1 167699930#3 981873069#2 301981265#0 301981265#3 301981265#4 301981265#5

             " 
        />
    </flow>
</routes>
