<?xml version="1.0" encoding="UTF-8"?>

<routes xmlns:xsi="http://www.w3.org/2001/XMLSchema-instance" xsi:noNamespaceSchemaLocation="http://sumo.dlr.de/xsd/routes_file.xsd">
    <vType id="bus_bus" vClass="bus" />
    <flow id="flow_bombeiros-ufsm" begin="0" end="3600" period="10" type="bus_bus" departLane="best" from="360929409" to="301981265#0" via="982058337 358980528#0 980959028#0 978487722#0  49793804#1 372500759#0  199426663 919386387#1 181326563  181326569 303107781#5 258407154 911408239#0 302762415#1 301981257#1 167699928 167699930#3 301981265#0 ">
    </flow>
</routes>
