<?xml version="1.0" encoding="UTF-8"?>

<!-- generated on 2021-09-22 08:24:34 by Eclipse SUMO netconvert Version 1.10.0
<configuration xmlns:xsi="http://www.w3.org/2001/XMLSchema-instance" xsi:noNamespaceSchemaLocation="http://sumo.dlr.de/xsd/netconvertConfiguration.xsd">

    <input>
        <type-files value="C:\Program%20Files%20(x86)\Eclipse\Sumo\data\typemap\osmNetconvert.typ.xml"/>
        <osm-files value="osm_bbox.osm.xml"/>
    </input>

    <output>
        <output-file value="osm.net.xml"/>
        <output.street-names value="true"/>
        <output.original-names value="true"/>
        <ptstop-output value="osm_stops.add.xml"/>
        <ptline-output value="osm_ptlines.xml"/>
    </output>

    <projection>
        <proj.utm value="true"/>
    </projection>

    <processing>
        <geometry.remove value="true"/>
        <roundabouts.guess value="true"/>
    </processing>

    <tls_building>
        <tls.discard-simple value="true"/>
        <tls.join value="true"/>
        <tls.guess-signals value="true"/>
        <tls.default-type value="actuated"/>
    </tls_building>

    <ramp_guessing>
        <ramps.guess value="true"/>
    </ramp_guessing>

    <junctions>
        <junctions.join value="true"/>
        <junctions.corner-detail value="5"/>
    </junctions>

    <railway>
        <railway.topology.repair value="true"/>
        <railway.topology.repair.stop-turn value="true"/>
    </railway>

    <report>
        <verbose value="true"/>
        <aggregate-warnings value="5"/>
    </report>

</configuration>
-->

<additional xmlns:xsi="http://www.w3.org/2001/XMLSchema-instance" xsi:noNamespaceSchemaLocation="http://sumo.dlr.de/xsd/additional_file.xsd">
    <busStop id="-1950137263" lane="-305176901#2_0" startPos="0.00" endPos="7.50" friendlyPos="true" lines="222 222A"/>
    <busStop id="-2036538582" lane="-193138280#1_0" startPos="0.00" endPos="7.50" friendlyPos="true" lines="1966 241A"/>
    <busStop id="-2402775161" lane="-204278072#2_0" startPos="9.44" endPos="24.44" friendlyPos="true" lines="541A 541B 541C 541L 541E 541P 355A"/>
    <busStop id="-2435446325" lane="-193026196#2_0" startPos="17.40" endPos="32.40" friendlyPos="true" lines="541A 541B 541C 541L 541E 541P"/>
    <busStop id="-2435446326" lane="-507082100_0" startPos="9.52" endPos="24.52" friendlyPos="true" lines="355A"/>
    <busStop id="-2458620750" lane="-305172098#0_0" startPos="0.00" endPos="10.97" friendlyPos="true" lines="222 221"/>
    <busStop id="-2458620753" lane="-305172098#3_0" startPos="9.13" endPos="24.13" friendlyPos="true" lines="222 221"/>
    <busStop id="-2458620762" lane="-226014647#1_0" startPos="6.60" endPos="21.60" friendlyPos="true" lines="196D 222"/>
    <busStop id="-2458907765" lane="-259401628#1_0" startPos="17.13" endPos="32.13" friendlyPos="true" lines="241A"/>
    <busStop id="-2458907768" lane="-372500444#0_0" startPos="6.78" endPos="21.78" friendlyPos="true" lines="241A"/>
    <busStop id="-2458907788" lane="-372500444#3_0" startPos="122.59" endPos="135.81" friendlyPos="true" lines="241A"/>
    <busStop id="-2458907791" lane="-496253716_0" startPos="27.68" endPos="42.68" friendlyPos="true" lines="241A"/>
    <busStop id="-2458907794" lane="-459839141#2_0" startPos="24.41" endPos="36.60" friendlyPos="true" lines="241A"/>
    <busStop id="-2652353692" lane="-956437244#3_0" startPos="61.35" endPos="68.85" friendlyPos="true" lines="196I 196D">
        <access lane="-259777969#0_0" pos="22.95" length="7.79" friendlyPos="1"/>
        <access lane="-259777969#1_0" pos="42.97" length="44.24" friendlyPos="1"/>
        <access lane="-259777970_0" pos="0.00" length="7.79" friendlyPos="1"/>
        <access lane="-259777982_0" pos="0.00" length="45.12" friendlyPos="1"/>
        <access lane="259777969#1_0" pos="0.00" length="47.35" friendlyPos="1"/>
    </busStop>
    <busStop id="-2823666404" lane="-259470109#1_0" startPos="16.78" endPos="31.78" friendlyPos="true" lines="197C">
        <access lane="-181347086#2_0" pos="0.00" length="34.13" friendlyPos="1"/>
        <access lane="-303082613#0_0" pos="40.85" length="37.77" friendlyPos="1"/>
        <access lane="181347086#2_0" pos="74.35" length="38.87" friendlyPos="1"/>
        <access lane="303082613#0_0" pos="0.00" length="42.09" friendlyPos="1"/>
        <access lane="368279839_0" pos="40.88" length="52.16" friendlyPos="1"/>
    </busStop>
    <busStop id="-2984341834" lane="-539338534_0" startPos="3.45" endPos="18.45" friendlyPos="true" lines="197C">
        <access lane="-181347083#8_0" pos="0.00" length="21.69" friendlyPos="1"/>
        <access lane="-539338521#0_0" pos="124.44" length="24.47" friendlyPos="1"/>
        <access lane="181347083#8_0" pos="107.93" length="17.69" friendlyPos="1"/>
        <access lane="401044398_0" pos="0.00" length="62.63" friendlyPos="1"/>
        <access lane="539338521#0_0" pos="0.00" length="21.00" friendlyPos="1"/>
    </busStop>
    <busStop id="-2984391681" lane="-678727293_0" startPos="3.25" endPos="10.75" friendlyPos="true" lines=" Estrela → Santa Maria via Santa Cruz e Venâncio Aires 0437 Sobradinho → Santa Maria via Três Vendas Sobradinho → Santa Maria via Vila Rosa Agudo → Santa Maria via UFSM Santa Maria → Porto Alegre via Cachoeira do Sul Santa Maria → Novo Hamburgo">
        <access lane="-183192154#0_0" pos="228.60" length="30.07" friendlyPos="1"/>
        <access lane="-257051595_0" pos="0.00" length="78.46" friendlyPos="1"/>
        <access lane="-920236772_0" pos="4.09" length="41.77" friendlyPos="1"/>
        <access lane="183192154#0_0" pos="0.00" length="32.16" friendlyPos="1"/>
        <access lane="920236773_0" pos="86.16" length="46.57" friendlyPos="1"/>
    </busStop>
    <busStop id="-3010640647" lane="-363468030#0_0" startPos="40.67" endPos="55.67" friendlyPos="true" lines="200A 197 197C 197A 197R"/>
    <busStop id="-3118998087" lane="-259735276#3_0" startPos="11.80" endPos="26.80" friendlyPos="true" lines="196I 196D">
        <access lane="-193139466#0_0" pos="159.34" length="31.51" friendlyPos="1"/>
        <access lane="-306872646#1_0" pos="0.00" length="34.75" friendlyPos="1"/>
        <access lane="193139466#0_0" pos="0.00" length="26.83" friendlyPos="1"/>
        <access lane="306872646#1_0" pos="41.20" length="30.53" friendlyPos="1"/>
        <access lane="962510039_0" pos="85.42" length="81.84" friendlyPos="1"/>
    </busStop>
    <busStop id="-3119042305" lane="-303082601#5_0" startPos="171.84" endPos="186.84" friendlyPos="true" lines="1965">
        <access lane="-256537870#3_0" pos="0.00" length="47.78" friendlyPos="1"/>
        <access lane="-618372003_0" pos="0.00" length="96.54" friendlyPos="1"/>
        <access lane="256537870#2_0" pos="34.37" length="103.83" friendlyPos="1"/>
        <access lane="256537870#3_0" pos="27.91" length="50.28" friendlyPos="1"/>
        <access lane="618372003_0" pos="99.67" length="101.29" friendlyPos="1"/>
    </busStop>
    <busStop id="-3334432877" lane="-305176902#6_0" startPos="48.38" endPos="63.38" friendlyPos="true" lines="222 222A"/>
    <busStop id="-3337988342" lane="-49793790#3_0" startPos="3.41" endPos="18.41" friendlyPos="true" lines="222"/>
    <busStop id="-3337988664" lane="-305176899#4_0" startPos="14.60" endPos="29.60" friendlyPos="true" lines="222"/>
    <busStop id="-3361646782" lane="-363484167#3_0" startPos="27.56" endPos="42.56" friendlyPos="true" lines="196I 196D">
        <access lane="-259777972_0" pos="15.75" length="34.76" friendlyPos="1"/>
        <access lane="-259777986#0_0" pos="0.64" length="45.06" friendlyPos="1"/>
        <access lane="-259777986#1_0" pos="8.10" length="47.70" friendlyPos="1"/>
        <access lane="259777972_0" pos="30.47" length="29.96" friendlyPos="1"/>
        <access lane="259777986#0_0" pos="8.53" length="49.86" friendlyPos="1"/>
    </busStop>
    <busStop id="-3393236467" lane="-183332637#0_0" startPos="32.69" endPos="47.69" friendlyPos="true" lines="200A"/>
    <busStop id="-3393236470" lane="-303082602#5_0" startPos="0.00" endPos="15.00" friendlyPos="true" lines=" Santa Maria → Sobradinho via Três Vendas Santa Maria → Estrela via Santa Cruz e Venâncio Aires 0437 200A Santa Maria → Porto Alegre via Cachoeira do Sul Santa Maria → Novo Hamburgo">
        <access lane="-360774428_0" pos="0.00" length="22.20" friendlyPos="1"/>
        <access lane="183191741#8_0" pos="11.23" length="28.16" friendlyPos="1"/>
        <access lane="183191872#0_0" pos="0.00" length="16.70" friendlyPos="1"/>
        <access lane="360774428_0" pos="9.98" length="18.54" friendlyPos="1"/>
        <access lane="981831184_0" pos="3.27" length="33.47" friendlyPos="1"/>
    </busStop>
    <busStop id="-3393236471" lane="-183192224#0_0" startPos="8.55" endPos="23.55" friendlyPos="true" lines="200A"/>
    <busStop id="-3393236473" lane="-421207841#0_0" startPos="49.80" endPos="64.80" friendlyPos="true" lines="200A 1965 196I 196D 197 197C 197A">
        <access lane="-342138978#0_0" pos="39.04" length="63.80" friendlyPos="1"/>
        <access lane="-368279897_0" pos="13.80" length="50.99" friendlyPos="1"/>
        <access lane="181347090#5_0" pos="11.88" length="59.42" friendlyPos="1"/>
        <access lane="342138978#0_0" pos="0.00" length="59.06" friendlyPos="1"/>
        <access lane="368279897_0" pos="13.89" length="44.22" friendlyPos="1"/>
    </busStop>
    <busStop id="-3393236479" lane="-204266499#0_0" startPos="0.00" endPos="11.88" friendlyPos="true" lines="200A 197 197C 197A 197R"/>
    <busStop id="-3393236480" lane="-363468029#2_0" startPos="33.98" endPos="48.98" friendlyPos="true" lines="200A"/>
    <busStop id="-3393236482" lane="-342138972#2_0" startPos="3.49" endPos="18.49" friendlyPos="true" lines="200A"/>
    <busStop id="-3455836752" lane="-193138280#6_0" startPos="48.45" endPos="62.38" friendlyPos="true" lines="1966 241A"/>
    <busStop id="-3455836753" lane="-193138280#6_0" startPos="50.71" endPos="62.38" friendlyPos="true" lines="1966 241A"/>
    <busStop id="-3455855342" lane="-303099165_0" startPos="9.56" endPos="24.56" friendlyPos="true" lines="1966 241A"/>
    <busStop id="-3455855343" lane="-303099165_0" startPos="9.21" endPos="24.21" friendlyPos="true" lines="1966 241A"/>
    <busStop id="-3455866589" lane="-475192922#0_0" startPos="117.65" endPos="132.26" friendlyPos="true" lines="1966 241A"/>
    <busStop id="-3455866591" lane="-981781077_0" startPos="29.38" endPos="44.38" friendlyPos="true" lines="1966"/>
    <busStop id="-3455872593" lane="-475192922#0_0" startPos="116.39" endPos="131.39" friendlyPos="true" lines="1966 241A"/>
    <busStop id="-353779871" lane="-911320123_0" startPos="12.67" endPos="27.67" friendlyPos="true" lines="196I 196D">
        <access lane="-256921675_0" pos="73.51" length="49.85" friendlyPos="1"/>
        <access lane="-959658183_0" pos="75.43" length="59.40" friendlyPos="1"/>
        <access lane="-960039964_0" pos="0.00" length="62.64" friendlyPos="1"/>
        <access lane="256921675_0" pos="10.35" length="45.03" friendlyPos="1"/>
        <access lane="959658183_0" pos="0.00" length="62.63" friendlyPos="1"/>
    </busStop>
    <busStop id="-3729684433" lane="-193026196#2_0" startPos="15.28" endPos="30.28" friendlyPos="true" lines="541A 541B 541C 541L 541E 541P"/>
    <busStop id="-3729684434" lane="-507082100_0" startPos="9.52" endPos="24.52" friendlyPos="true" lines="355A"/>
    <busStop id="-3729745008" lane="-305172098#0_0" startPos="0.00" endPos="10.97" friendlyPos="true" lines="222 221"/>
    <busStop id="-3729745009" lane="-305172098#3_0" startPos="9.78" endPos="24.78" friendlyPos="true" lines="222 221"/>
    <busStop id="-3729788833" lane="-204278072#2_0" startPos="8.82" endPos="23.82" friendlyPos="true" lines="541A 541B 541C 541L 541E 541P 355A"/>
    <busStop id="-3883788944" lane="-183332637#5_0" startPos="6.94" endPos="21.94" friendlyPos="true" lines="200A"/>
    <busStop id="-4001060150" lane="-303099172#3_0" startPos="18.98" endPos="33.98" friendlyPos="true" lines="1966"/>
    <busStop id="-4127110091" lane="-822733904#1_0" startPos="5.61" endPos="15.54" friendlyPos="true" lines="1965 196I 196D">
        <access lane="-318229655_0" pos="70.22" length="19.10" friendlyPos="1"/>
        <access lane="193220760#0_0" pos="2.26" length="25.26" friendlyPos="1"/>
        <access lane="193220760#1_0" pos="7.84" length="7.99" friendlyPos="1"/>
        <access lane="193220764#0_0" pos="0.00" length="30.00" friendlyPos="1"/>
        <access lane="318229655_0" pos="0.00" length="19.90" friendlyPos="1"/>
    </busStop>
    <busStop id="-4194067386" lane="-363489416#5_0" startPos="0.00" endPos="13.41" friendlyPos="true" lines="196I 196D">
        <access lane="-419315426_0" pos="28.25" length="29.22" friendlyPos="1"/>
        <access lane="-419315428#1_0" pos="0.00" length="14.64" friendlyPos="1"/>
        <access lane="419315426_0" pos="0.00" length="33.95" friendlyPos="1"/>
        <access lane="419315428#0_0" pos="14.52" length="38.59" friendlyPos="1"/>
        <access lane="419315428#1_0" pos="9.56" length="11.42" friendlyPos="1"/>
    </busStop>
    <busStop id="-4210137903" lane="-183332637#5_0" startPos="6.38" endPos="21.38" friendlyPos="true" lines="200A"/>
    <busStop id="-4210137907" lane="-183332637#0_0" startPos="32.45" endPos="47.45" friendlyPos="true" lines="200A"/>
    <busStop id="-4210137915" lane="-303082602#5_0" startPos="0.48" endPos="15.48" friendlyPos="true" lines=" Santa Maria → Sobradinho via Três Vendas Santa Maria → Estrela via Santa Cruz e Venâncio Aires 0437 200A">
        <access lane="-360774428_0" pos="0.00" length="25.70" friendlyPos="1"/>
        <access lane="183191741#8_0" pos="11.23" length="32.70" friendlyPos="1"/>
        <access lane="183191872#0_0" pos="0.00" length="23.17" friendlyPos="1"/>
        <access lane="360774428_0" pos="9.98" length="22.86" friendlyPos="1"/>
        <access lane="981831184_0" pos="3.27" length="39.97" friendlyPos="1"/>
    </busStop>
    <busStop id="-4210137921" lane="-421207841#0_0" startPos="50.11" endPos="65.11" friendlyPos="true" lines="200A 1965 196I 196D 197 197C 197A">
        <access lane="-342138978#0_0" pos="38.45" length="62.37" friendlyPos="1"/>
        <access lane="-368279897_0" pos="13.80" length="58.86" friendlyPos="1"/>
        <access lane="181347090#5_0" pos="11.88" length="61.65" friendlyPos="1"/>
        <access lane="342138978#0_0" pos="0.59" length="57.57" friendlyPos="1"/>
        <access lane="368279897_0" pos="13.89" length="52.25" friendlyPos="1"/>
    </busStop>
    <busStop id="-4210137946" lane="-204266498#1_0" startPos="0.29" endPos="15.29" friendlyPos="true" lines="200A"/>
    <busStop id="-4210137952" lane="-204266498#6_0" startPos="14.10" endPos="29.10" friendlyPos="true" lines="200A"/>
    <busStop id="-4222178502" lane="-363454254#1_0" startPos="7.96" endPos="19.11" friendlyPos="true" lines="200A "/>
    <busStop id="-4524015322" lane="-678727293_0" startPos="0.00" endPos="13.69" friendlyPos="true" lines=" Santa Maria → Sobradinho via Três Vendas Santa Maria → Estrela via Santa Cruz e Venâncio Aires 0437">
        <access lane="-183192154#0_0" pos="228.60" length="36.40" friendlyPos="1"/>
        <access lane="-920236772_0" pos="6.18" length="27.13" friendlyPos="1"/>
        <access lane="183192154#0_0" pos="0.00" length="39.96" friendlyPos="1"/>
        <access lane="273852673_0" pos="28.10" length="70.58" friendlyPos="1"/>
        <access lane="920236773_0" pos="84.07" length="31.93" friendlyPos="1"/>
    </busStop>
    <busStop id="-4544000076" lane="-363484167#0_0" startPos="128.12" endPos="143.12" friendlyPos="true" lines="196I 196D">
        <access lane="-259777976#0_0" pos="29.79" length="207.30" friendlyPos="1"/>
        <access lane="-960072131_0" pos="0.00" length="208.87" friendlyPos="1"/>
        <access lane="259777976#0_0" pos="0.00" length="202.60" friendlyPos="1"/>
        <access lane="259777976#1_0" pos="0.00" length="224.20" friendlyPos="1"/>
        <access lane="960072131_0" pos="26.74" length="204.38" friendlyPos="1"/>
    </busStop>
    <busStop id="-4544794390" lane="-350103656#2_0" startPos="22.05" endPos="34.29" friendlyPos="true" lines="Circular UFSM"/>
    <busStop id="-4728682336" lane="-363472908#5_0" startPos="4.67" endPos="19.67" friendlyPos="true" lines="197 197C 197A 197R"/>
    <busStop id="-4751078504" lane="-420843500#0_0" startPos="0.00" endPos="14.56" friendlyPos="true" lines="Circular UFSM"/>
    <busStop id="-4820847430" lane="-363472906#3_0" startPos="0.00" endPos="9.38" friendlyPos="true" lines="1965 196I 196D 197 197C 197A">
        <access lane="-363472908#1_0" pos="4.48" length="35.44" friendlyPos="1"/>
        <access lane="-363472908#2_0" pos="3.70" length="41.78" friendlyPos="1"/>
        <access lane="-568381692#2_0" pos="0.00" length="40.99" friendlyPos="1"/>
        <access lane="363472908#0_0" pos="0.00" length="40.24" friendlyPos="1"/>
        <access lane="568381692#1_0" pos="14.64" length="45.19" friendlyPos="1"/>
    </busStop>
    <busStop id="-4820847432" lane="-363472906#3_0" startPos="0.00" endPos="9.38" friendlyPos="true" lines="1965 196I 196D 197 197C 197A">
        <access lane="-363472908#1_0" pos="4.48" length="38.00" friendlyPos="1"/>
        <access lane="-363472908#2_0" pos="3.70" length="48.26" friendlyPos="1"/>
        <access lane="-568381692#2_0" pos="0.00" length="38.14" friendlyPos="1"/>
        <access lane="363472908#0_0" pos="0.00" length="42.62" friendlyPos="1"/>
        <access lane="568381692#1_0" pos="14.64" length="42.74" friendlyPos="1"/>
    </busStop>
    <busStop id="-4906911065" lane="-191714265#1_0" startPos="62.78" endPos="77.78" friendlyPos="true" lines="541B  541R 196D 222"/>
    <busStop id="-4906911067" lane="-191714265#1_0" startPos="61.97" endPos="76.97" friendlyPos="true" lines="541B  541R 196D 222"/>
    <busStop id="-4911689703" lane="-459839141#2_0" startPos="24.78" endPos="36.60" friendlyPos="true" lines="241A"/>
    <busStop id="-4911689704" lane="-496253716_0" startPos="28.98" endPos="43.98" friendlyPos="true" lines="241A"/>
    <busStop id="-4911689705" lane="-372500444#3_0" startPos="121.94" endPos="135.81" friendlyPos="true" lines="241A"/>
    <busStop id="-4911689708" lane="-372500444#0_0" startPos="6.78" endPos="21.78" friendlyPos="true" lines="241A"/>
    <busStop id="-4911689709" lane="-259401628#1_0" startPos="16.90" endPos="31.90" friendlyPos="true" lines="241A"/>
    <busStop id="-4941397842" lane="-956437244#3_0" startPos="59.04" endPos="68.85" friendlyPos="true" lines="196I 196D">
        <access lane="-259777969#0_0" pos="22.95" length="6.69" friendlyPos="1"/>
        <access lane="-259777969#1_0" pos="42.97" length="43.98" friendlyPos="1"/>
        <access lane="-259777970_0" pos="0.00" length="2.05" friendlyPos="1"/>
        <access lane="-259777982_0" pos="0.00" length="42.52" friendlyPos="1"/>
        <access lane="259777982_0" pos="343.33" length="45.43" friendlyPos="1"/>
    </busStop>
    <busStop id="-4941397844" lane="-363484167#0_0" startPos="127.65" endPos="142.65" friendlyPos="true" lines="196I 196D">
        <access lane="-259777976#0_0" pos="29.79" length="206.27" friendlyPos="1"/>
        <access lane="-960072131_0" pos="0.00" length="208.30" friendlyPos="1"/>
        <access lane="259777976#0_0" pos="0.00" length="201.54" friendlyPos="1"/>
        <access lane="259777976#1_0" pos="0.00" length="221.48" friendlyPos="1"/>
        <access lane="960072131_0" pos="26.74" length="203.87" friendlyPos="1"/>
    </busStop>
    <busStop id="-4941397852" lane="-303082601#5_0" startPos="171.88" endPos="186.88" friendlyPos="true" lines="1965">
        <access lane="-256537870#3_0" pos="0.00" length="46.62" friendlyPos="1"/>
        <access lane="-618372003_0" pos="0.00" length="94.87" friendlyPos="1"/>
        <access lane="256537870#2_0" pos="34.37" length="102.68" friendlyPos="1"/>
        <access lane="256537870#3_0" pos="27.91" length="49.52" friendlyPos="1"/>
        <access lane="618372003_0" pos="99.67" length="99.65" friendlyPos="1"/>
    </busStop>
    <busStop id="-4941397855" lane="-822733904#1_0" startPos="3.92" endPos="15.54" friendlyPos="true" lines="1965 196I 196D">
        <access lane="-318229655_0" pos="70.22" length="8.15" friendlyPos="1"/>
        <access lane="193220760#0_0" pos="2.26" length="36.27" friendlyPos="1"/>
        <access lane="193220760#1_0" pos="10.15" length="13.12" friendlyPos="1"/>
        <access lane="193220764#0_0" pos="0.00" length="29.54" friendlyPos="1"/>
        <access lane="318229655_0" pos="0.00" length="10.18" friendlyPos="1"/>
    </busStop>
    <busStop id="-4941397858" lane="-911320116#2_0" startPos="50.17" endPos="65.17" friendlyPos="true" lines="1965 196I 196D">
        <access lane="-256537871#0_0" pos="39.62" length="34.42" friendlyPos="1"/>
        <access lane="-256537871#1_0" pos="12.55" length="64.63" friendlyPos="1"/>
        <access lane="-651562484_0" pos="22.98" length="69.77" friendlyPos="1"/>
        <access lane="256537871#0_0" pos="87.95" length="29.62" friendlyPos="1"/>
        <access lane="256537871#1_0" pos="0.00" length="60.88" friendlyPos="1"/>
    </busStop>
    <busStop id="-4941397859" lane="-911320116#2_0" startPos="50.61" endPos="65.61" friendlyPos="true" lines="1965 196I 196D">
        <access lane="-256537871#0_0" pos="40.16" length="47.67" friendlyPos="1"/>
        <access lane="-256537871#1_0" pos="12.55" length="68.79" friendlyPos="1"/>
        <access lane="-651562484_0" pos="27.68" length="75.78" friendlyPos="1"/>
        <access lane="256537871#0_0" pos="87.41" length="42.87" friendlyPos="1"/>
        <access lane="256537871#1_0" pos="0.00" length="64.53" friendlyPos="1"/>
    </busStop>
    <busStop id="-4941397864" lane="-539338534_0" startPos="4.02" endPos="19.02" friendlyPos="true" lines="197C">
        <access lane="-181347083#8_0" pos="0.00" length="29.83" friendlyPos="1"/>
        <access lane="-539338521#0_0" pos="124.44" length="20.11" friendlyPos="1"/>
        <access lane="181347083#8_0" pos="107.93" length="26.90" friendlyPos="1"/>
        <access lane="368284018_0" pos="0.00" length="67.02" friendlyPos="1"/>
        <access lane="539338521#0_0" pos="0.00" length="15.43" friendlyPos="1"/>
    </busStop>
    <busStop id="-4941397866" lane="-421207841#1_0" startPos="65.02" endPos="80.02" friendlyPos="true" lines="197C">
        <access lane="-181347077#4_0" pos="0.00" length="20.48" friendlyPos="1"/>
        <access lane="-314664957_0" pos="7.63" length="74.15" friendlyPos="1"/>
        <access lane="-342138979#0_0" pos="34.57" length="26.88" friendlyPos="1"/>
        <access lane="181347077#4_0" pos="55.03" length="15.78" friendlyPos="1"/>
        <access lane="342138979#0_0" pos="0.00" length="23.50" friendlyPos="1"/>
    </busStop>
    <busStop id="-4941397867" lane="-421207841#1_0" startPos="65.29" endPos="80.29" friendlyPos="true" lines="197C">
        <access lane="-181347077#4_0" pos="0.00" length="22.45" friendlyPos="1"/>
        <access lane="-314664957_0" pos="7.25" length="67.09" friendlyPos="1"/>
        <access lane="-342138979#0_0" pos="34.57" length="22.39" friendlyPos="1"/>
        <access lane="181347077#4_0" pos="55.03" length="18.39" friendlyPos="1"/>
        <access lane="342138979#0_0" pos="0.00" length="18.32" friendlyPos="1"/>
    </busStop>
    <busStop id="-4941397868" lane="-259470109#1_0" startPos="17.48" endPos="32.48" friendlyPos="true" lines="197C">
        <access lane="-181347086#2_0" pos="1.65" length="32.71" friendlyPos="1"/>
        <access lane="-303082613#0_0" pos="40.85" length="41.65" friendlyPos="1"/>
        <access lane="181347086#2_0" pos="72.70" length="37.51" friendlyPos="1"/>
        <access lane="303082613#0_0" pos="0.00" length="45.52" friendlyPos="1"/>
        <access lane="368279839_0" pos="40.45" length="51.46" friendlyPos="1"/>
    </busStop>
    <busStop id="-4965020068" lane="-181355810#0_0" startPos="56.36" endPos="71.36" friendlyPos="true" lines="196F"/>
    <busStop id="-4977276388" lane="-240272342#1_0" startPos="10.16" endPos="25.16" friendlyPos="true" lines="223G 223V 212E 223C 541S 223E 223A 212F 212Q"/>
    <busStop id="-5084889288" lane="-363483827#4_0" startPos="244.45" endPos="258.59" friendlyPos="true" lines="1966"/>
    <busStop id="-5084889289" lane="-363483827#4_0" startPos="245.10" endPos="258.59" friendlyPos="true" lines="1966"/>
    <busStop id="-5084889290" lane="-193139481#0_0" startPos="1.53" endPos="16.53" friendlyPos="true" lines="1966"/>
    <busStop id="-5084889292" lane="-193139481#0_0" startPos="0.00" endPos="14.83" friendlyPos="true" lines="1966"/>
    <busStop id="-5084889294" lane="-303099172#3_0" startPos="19.99" endPos="34.99" friendlyPos="true" lines="1966"/>
    <busStop id="-5098452101" lane="-193138280#3_0" startPos="80.30" endPos="95.30" friendlyPos="true" lines="1966 241A"/>
    <busStop id="-5105209683" lane="-193138280#3_0" startPos="80.90" endPos="95.90" friendlyPos="true" lines="1966 241A"/>
    <busStop id="-5130992187" lane="-363468028#2_0" startPos="5.34" endPos="20.34" friendlyPos="true" lines="200A"/>
    <busStop id="-5130992188" lane="-363468028#2_0" startPos="4.38" endPos="19.38" friendlyPos="true" lines="200A"/>
    <busStop id="-5144139043" lane="-286663226_0" startPos="548.97" endPos="563.97" friendlyPos="true" lines=""/>
    <busStop id="-5150946074" lane="-303099172#0_0" startPos="0.00" endPos="8.91" friendlyPos="true" lines="1966"/>
    <busStop id="-5150946075" lane="-303099172#0_0" startPos="0.00" endPos="8.91" friendlyPos="true" lines="1966"/>
    <busStop id="-5253334521" lane="-199341668#3_0" startPos="4.95" endPos="19.95" friendlyPos="true" lines="222 222A"/>
    <busStop id="-5253334522" lane="-199341668#3_0" startPos="5.64" endPos="20.64" friendlyPos="true" lines="222 222A"/>
    <busStop id="-5253334523" lane="-199341668#0_0" startPos="21.19" endPos="36.19" friendlyPos="true" lines="222 222A"/>
    <busStop id="-5253334524" lane="-199341668#0_0" startPos="20.72" endPos="35.72" friendlyPos="true" lines="222 222A"/>
    <busStop id="-5253334525" lane="-199341668#2_0" startPos="40.75" endPos="55.75" friendlyPos="true" lines="222 222A"/>
    <busStop id="-5253334526" lane="-199341668#2_0" startPos="40.61" endPos="55.61" friendlyPos="true" lines="222 222A"/>
    <busStop id="-5253334527" lane="-199341686#0_0" startPos="38.75" endPos="53.75" friendlyPos="true" lines="222 222A"/>
    <busStop id="-5253334528" lane="-199341686#0_0" startPos="38.43" endPos="53.43" friendlyPos="true" lines="222 222A"/>
    <busStop id="-5253334529" lane="-199341686#2_0" startPos="24.46" endPos="39.46" friendlyPos="true" lines="222 222A"/>
    <busStop id="-5253334530" lane="-199341686#2_0" startPos="25.00" endPos="40.00" friendlyPos="true" lines="222 222A"/>
    <busStop id="-5253334531" lane="-240164166_0" startPos="39.25" endPos="54.25" friendlyPos="true" lines="222 222A"/>
    <busStop id="-5253334532" lane="-240164166_0" startPos="39.68" endPos="54.68" friendlyPos="true" lines="222 222A"/>
    <busStop id="-5253334533" lane="-363055806_0" startPos="35.89" endPos="50.89" friendlyPos="true" lines="222 222A"/>
    <busStop id="-5253334534" lane="-363055806_0" startPos="35.89" endPos="50.89" friendlyPos="true" lines="222 222A"/>
    <busStop id="-5292113063" lane="-303082601#1_0" startPos="35.59" endPos="50.59" friendlyPos="true" lines="1965 196I 196D">
        <access lane="-618372483_0" pos="30.66" length="19.20" friendlyPos="1"/>
        <access lane="-959068961_0" pos="6.50" length="56.81" friendlyPos="1"/>
        <access lane="-959068962#1_0" pos="41.52" length="50.21" friendlyPos="1"/>
        <access lane="618372483_0" pos="38.00" length="24.00" friendlyPos="1"/>
        <access lane="959068962#1_0" pos="32.41" length="55.01" friendlyPos="1"/>
    </busStop>
    <busStop id="-5293795967" lane="-259470109#1_0" startPos="23.48" endPos="38.48" friendlyPos="true" lines="200A 1965 196I 196D 197 197C 197A">
        <access lane="-181347086#2_0" pos="0.00" length="46.66" friendlyPos="1"/>
        <access lane="-303082613#0_0" pos="40.85" length="45.74" friendlyPos="1"/>
        <access lane="-368279839_0" pos="0.00" length="49.04" friendlyPos="1"/>
        <access lane="303082613#0_0" pos="0.00" length="50.44" friendlyPos="1"/>
        <access lane="368279839_0" pos="40.88" length="44.55" friendlyPos="1"/>
    </busStop>
    <busStop id="-5293795968" lane="-259470109#1_0" startPos="23.35" endPos="38.35" friendlyPos="true" lines="200A 1965 196I 196D 197 197C 197A">
        <access lane="-181347086#2_0" pos="0.00" length="43.60" friendlyPos="1"/>
        <access lane="-303082613#0_0" pos="40.85" length="47.30" friendlyPos="1"/>
        <access lane="-368279839_0" pos="0.00" length="47.04" friendlyPos="1"/>
        <access lane="181347086#2_0" pos="74.35" length="48.38" friendlyPos="1"/>
        <access lane="368279839_0" pos="40.88" length="42.30" friendlyPos="1"/>
    </busStop>
    <busStop id="-5468249328" lane="-258407155_0" startPos="0.00" endPos="13.68" friendlyPos="true" lines="">
        <access lane="-183191444#0_0" pos="0.20" length="26.93" friendlyPos="1"/>
        <access lane="-183192099#6_0" pos="0.00" length="20.26" friendlyPos="1"/>
        <access lane="183191444#0_0" pos="0.00" length="28.81" friendlyPos="1"/>
        <access lane="183192099#6_0" pos="6.17" length="16.35" friendlyPos="1"/>
        <access lane="376401093_0" pos="6.80" length="24.22" friendlyPos="1"/>
    </busStop>
    <busStop id="-5468249329" lane="-258407155_0" startPos="0.73" endPos="15.73" friendlyPos="true" lines=" Santa Maria → Porto Alegre via Cachoeira do Sul Santa Maria → Novo Hamburgo">
        <access lane="-183191444#0_0" pos="0.20" length="16.67" friendlyPos="1"/>
        <access lane="-207227909#0_0" pos="20.08" length="20.27" friendlyPos="1"/>
        <access lane="183191444#0_0" pos="0.00" length="15.66" friendlyPos="1"/>
        <access lane="207227909#0_0" pos="0.00" length="16.25" friendlyPos="1"/>