<?xml version="1.0" encoding="UTF-8"?>
<!-- generated on 2021-09-22 08:24:54.116000 by $Id: ptlines2flows.py v1_3_1+0313-ccb31df3eb jakob.erdmann@dlr.de 2019-09-02 13:26:32 +0200 $ v1_10_0+0000-83496a5972
  options: 
-->
<routes xmlns:xsi="http://www.w3.org/2001/XMLSchema-instance" xsi:noNamespaceSchemaLocation="http://sumo.dlr.de/xsd/routes_file.xsd">
    <vType id="pt_bus" vClass="bus"/>
    <vType id="pt_tram" vClass="tram"/>
    <vType id="pt_train" vClass="rail"/>
    <vType id="pt_subway" vClass="rail_urban"/>
    <vType id="pt_light_rail" vClass="rail_urban"/>
    <vType id="pt_monorail" vClass="rail"/>
    <vType id="pt_trolleybus" vClass="bus"/>
    <vType id="pt_aerialway" vClass="bus"/>
    <vType id="pt_ferry" vClass="ship"/>
    <route id="pt_bus_223G:0" edges="-240272342#1 -240272342#0 -193030336 -259401634#1 -259401634#0 -259401642 -193030328#1 -507082100 193023737 368494313#0 504333064 50783634#0 50783634#2 50783634#3 50783634#4 368494305#0 368494305#1 368494305#2 231958644#1 231958644#2 231958644#3 957244973#0 957244973#2 368494304 406018091 758726401 368494306#1 50014718#1 50014718#3 50014718#4 406062453#0 406062453#1 49874201 396388572#0 396388572#1 396388572#2 225971208#0 225971208#2 225971208#3 344153349 50013146#0 50013146#2 50676752#0 50676752#1 358563417#1" >
        <stop busStop="-4977276388" duration="30.00" until="36.0"/> <!-- None -->
    </route>
    <route id="pt_bus_212A:0" edges="341783022 458140049#0 193189977 193189978 462356174 462356169#0 344153357 457493243#2 462356162#0 462356162#1 344153358#0 368091941#1 49874201 505107579 49874216#0 344153358#0 368091941#1 49874201 192656812 193325083 193325084 -868802300 -868802301 -344153337#3 -344153337#2 -344153337#1 -344153337#0 -406078188 -406078191 -406078190" >
        <stop busStop="4686905462" duration="30.00" until="31.0"/> <!-- None -->
        <stop busStop="2458620746" duration="30.00" until="194.0"/> <!-- None -->
        <stop busStop="4544828402" duration="30.00" until="290.0"/> <!-- None -->
    </route>
    <route id="pt_bus_223V:0" edges="-240272342#1 -240272342#0 -193030336 -259401634#1 -259401634#0 -259401642 -193030328#1 -507082100 193023737 368494313#0 504333064 50783634#0 50783634#2 50783634#3 50783634#4 368494305#0 368494305#1 368494305#2 231958644#1 231958644#2 231958644#3 957244973#0 957244973#2 368494304 406018091 758726401 368494306#1 50014718#1 50014718#3 50014718#4 406062453#0 406062453#1 49874201 396388572#0 396388572#1 396388572#2 225971208#0 225971208#2 225971208#3 344153349 50013146#0 50013146#2 50676752#0 50676752#1 358563417#1" >
        <stop busStop="-4977276388" duration="30.00" until="36.0"/> <!-- None -->
    </route>
    <route id="pt_bus_212E:0" edges="-240272342#1 -240272342#0 -193030336 -259401634#1 -259401634#0 -259401642 -193030328#1 -507082100 193023737 368494313#0 504333064 50783634#0 50783634#2 50783634#3 50783634#4 368494305#0 368494305#1 368494305#2 231958644#1 231958644#2 231958644#3 957244973#0 957244973#2 368494304 406018091 758726401 368494306#1 50014718#1 50014718#3 50014718#4 406062453#0 406062453#1 49874201 396388572#0 396388572#1 396388572#2 225971208#0 225971208#2 225971208#3 344153349 50013146#0 50013146#2 50676752#0 50676752#1 358563417#1" >
        <stop busStop="-4977276388" duration="30.00" until="67.0"/> <!-- None -->
    </route>
    <route id="pt_bus_:14" edges="200672740#3 406490708#1 406490708#2 406490708#3 361951569#0 239925092 504333064 50783634#0 50783634#2 50783634#3 50783634#4 368494305#0 368494305#1 368494305#2 231958644#1 231958644#2 231958644#3 957244973#0 957244973#2 368494304 406018091 758726401 368494306#1 50014718#1 50014718#3 50014718#4 406062453#0 406062453#1 49874201 396388572#0 396388572#1 396388572#2 225971208#0 225971208#2 225971208#3 344153349 50013146#0 50013146#2 50676752#0 50676752#1" >
        <stop busStop="3729745004" duration="30.00" until="41.0"/> <!-- None -->
        <stop busStop="2475475690" duration="30.00" until="72.0"/> <!-- None -->
        <stop busStop="3729684439" duration="30.00" until="149.0"/> <!-- None -->
        <stop busStop="2435446331" duration="30.00" until="180.0"/> <!-- None -->
        <stop busStop="3729684437" duration="30.00" until="289.0"/> <!-- None -->
        <stop busStop="2435446330" duration="30.00" until="320.0"/> <!-- None -->
        <stop busStop="3729684443" duration="30.00" until="405.0"/> <!-- None -->
        <stop busStop="6405256168" duration="30.00" until="436.0"/> <!-- None -->
        <stop busStop="3509128042" duration="30.00" until="552.0"/> <!-- None -->
        <stop busStop="6405256169" duration="30.00" until="583.0"/> <!-- None -->
    </route>
    <route id="pt_bus_355B:0" edges="373701300#0 373701300#2 373701300#3 373701300#4 978519138 938420817 167025849#0 167025849#1 167025849#2 525268746 49732813#0 49732813#1 49732813#2 504322129#1 504322129#3 525268750#1 539264858#1 539264858#2 539264858#3 539264858#4 539264858#5 539264858#8 539264858#9 305135147 539540914#0 539264851#1 539264851#2 539264851#3 539264853 539264855 539264854 301521094#0 301521094#1 301521094#2 301521094#3 301521094#4 301521093#0 301521093#1 301521093#2 301521093#3 301521093#4 49793804#1 49793804#2 507082099 301521095#0 301521095#2 368494308#0 368494308#2 365729211#1 471955628 240532999#0 966846614 368486584#2 368486584#3 239925092 193023735#1 193023733#2 406021800 305435188#0 204278072#2 259401636#0 259401636#1 406229215 258524194#1" >
        <stop busStop="2656636498" duration="30.00" until="46.0"/> <!-- None -->
    </route>
    <route id="pt_bus_223C:0" edges="-240272342#1 -240272342#0 -193030336 -259401634#1 -259401634#0 -259401642 -193030328#1 -507082100 193023737 368494313#0 504333064 50783634#0 50783634#2 50783634#3 50783634#4 368494305#0 368494305#1 368494305#2 231958644#1 231958644#2 231958644#3 957244973#0 957244973#2 368494304 406018091 758726401 368494306#1 50014718#1 50014718#3 50014718#4 406062453#0 406062453#1 49874201 396388572#0 396388572#1 396388572#2 225971208#0 225971208#2 225971208#3 344153349 50013146#0 50013146#2 50676752#0 50676752#1 358563417#1" >
        <stop busStop="-4977276388" duration="30.00" until="37.0"/> <!-- None -->
    </route>
    <route id="pt_bus_154A:1" edges="49874192 360922569#0 360922569#1 358981136#1 982058341 982058337 358981135 982058336 358980528#0 269016265 269016266#0 358977806 358977807 633932892" >
        <stop busStop="5366197388" duration="30.00" until="43.0"/> <!-- None -->
    </route>
    <route id="pt_bus_541S:0" edges="-240272342#1 -240272342#0 -193030336 -259401634#1 -259401634#0 -259401642 -193030328#1 -507082100 193023737 368494313#0 504333064 50783634#0 50783634#2 50783634#3 50783634#4 368494305#0 368494305#1 368494305#2 231958644#1 231958644#2 231958644#3 957244973#0 957244973#2 368494304 406018091 758726401 368494306#1 50014718#1 50014718#3 50014718#4 406062453#0 406062453#1 49874201 396388572#0 396388572#1 396388572#2 225971208#0 225971208#2 225971208#3 344153349 50013146#0 50013146#2 50676752#0 50676752#1 358563417#1" >
        <stop busStop="-4977276388" duration="30.00" until="38.0"/> <!-- None -->
    </route>
    <route id="pt_bus_223E:0" edges="-240272342#1 -240272342#0 -193030336 -259401634#1 -259401634#0 -259401642 -193030328#1 -507082100 193023737 368494313#0 504333064 50783634#0 50783634#2 50783634#3 50783634#4 368494305#0 368494305#1 368494305#2 231958644#1 231958644#2 231958644#3 957244973#0 957244973#2 368494304 406018091 758726401 368494306#1 50014718#1 50014718#3 50014718#4 406062453#0 406062453#1 49874201 396388572#0 396388572#1 396388572#2 225971208#0 225971208#2 225971208#3 344153349 50013146#0 50013146#2 50676752#0 50676752#1 358563417#1" >
        <stop busStop="-4977276388" duration="30.00" until="39.0"/> <!-- None -->
    </route>
    <route id="pt_bus_236B:1" edges="982044004#0 982044004#1 982044004#2 503896684 982044003#0 982044003#1 360935211#0 360935211#2 360935211#3" >
        <stop busStop="4604392752" duration="30.00" until="80.0"/> <!-- None -->
        <stop busStop="6245535338" duration="30.00" until="111.0"/> <!-- None -->
        <stop busStop="4604392755" duration="30.00" until="167.0"/> <!-- None -->
        <stop busStop="6245535339" duration="30.00" until="198.0"/> <!-- None -->
    </route>
    <route id="pt_bus_541A:0" edges="-258524194#1 -258524194#0 -259401636#1 -259401636#0 -204278072#2 -407392594 -193026196#7 -193026196#6 -193026196#5 -193026196#2 -193026196#1 193026197#0 193026197#1 368494311#0 231958644#1 231958644#2 231958644#3 957244973#0 957244973#2 368494304 406018091 758726401 368494306#1 50014718#1 50014718#3 50014718#4 406062453#0 406062453#1 49874201 396388572#0 396388572#1 396388572#2 225971208#0 225971208#2 225971208#3 344153349 50013146#0 50013146#2 50676752#0 50676752#1 358563417#1" >
        <stop busStop="-3729788833" duration="30.00" until="55.0"/> <!-- None -->
        <stop busStop="-2402775161" duration="30.00" until="86.0"/> <!-- None -->
        <stop busStop="-3729684433" duration="30.00" until="197.0"/> <!-- None -->
        <stop busStop="-2435446325" duration="30.00" until="231.0"/> <!-- None -->
        <stop busStop="3729684437" duration="30.00" until="368.0"/> <!-- None -->
        <stop busStop="2435446330" duration="30.00" until="399.0"/> <!-- None -->
        <stop busStop="3729684443" duration="30.00" until="489.0"/> <!-- None -->
        <stop busStop="6405256168" duration="30.00" until="520.0"/> <!-- None -->
        <stop busStop="3509128042" duration="30.00" until="631.0"/> <!-- None -->
        <stop busStop="6405256169" duration="30.00" until="662.0"/> <!-- None -->
        <stop busStop="4603748637" duration="30.00" until="758.0"/> <!-- None -->
    </route>
    <route id="pt_bus_:65" edges="960208352 960208351 347627305 958982833 347627304 958729619 958729620 960208349 958969752 711550590#0 711550590#1 711550589#2 958969753#0 958729621 958982834 388521769 960208353 958969757 958729622 960208354 960208355 347627306 960208356 960208358 960208357 960208359 958969760 958982830 958982835 387565205 162070698#0 162070698#1 960208361 960208360 960208362 352049278 958914458#0 958914458#1 958914458#2 260232099#0 260232099#1 260232099#2 883262172#0 883262172#2 883262172#3 883262172#4 883262172#5 709043445 658557318 504033184 658557319#0 658557319#1 658557317#0 658557317#1 504033182 822002096#0 -305068793#2 -305068793#1 -305068793#0 -305135153#0 -390517208#1 -390517208#0 -305135154#1 -305135154#0 -259431917#2 199341682 -231288092#1 -231288092#0 -390529701#2 -390529701#0 -191714268#1 -191714268#0 -390999304 193391674 -305172100 -369303818#1 -369303818#0 -199341740 192428837#12 192428837#13 192428837#14 192428837#15" >
        <stop busStop="2093445983" duration="30.00" until="370.0"/> <!-- Rodoviária de Santa Maria -->
    </route>
    <route id="pt_bus_155C:1" edges="341783022 458140049#0 193189977 193189978 462356174 462356169#0 344153357 457493243#2 462356162#0 462356162#1 475997383#1 475997383#2 475997382#0 475997382#1 475997382#2 475997382#3 978455013#1 978455013#2 369024791#0 369024791#1 191706895#0 191706895#1 978455012#0 368091899#0 368091899#1 368091899#2 368091905#1 344153330#1 368091899#0 368091899#1 368091899#2 978456482 504338188#0 978456483#0 525268747 978462764#0 368559006#0 408999833#1 978471464 910259243#0 225971204" >
        <stop busStop="4017965051" duration="30.00" until="47.0"/> <!-- None -->
        <stop busStop="4578488447" duration="30.00" until="180.0"/> <!-- None -->
        <stop busStop="4696675289" duration="30.00" until="273.0"/> <!-- None -->
        <stop busStop="4696675290" duration="30.00" until="402.0"/> <!-- None -->
        <stop busStop="5274441694" duration="30.00" until="485.0"/> <!-- None -->
        <stop busStop="6519748646" duration="30.00" until="516.0"/> <!-- None -->
        <stop busStop="2656636367" duration="30.00" until="568.0"/> <!-- None -->
        <stop busStop="6519748644" duration="30.00" until="599.0"/> <!-- None -->
        <stop busStop="2656636422" duration="30.00" until="658.0"/> <!-- None -->
        <stop busStop="6519748648" duration="30.00" until="689.0"/> <!-- None -->
        <stop busStop="2656636452" duration="30.00" until="763.0"/> <!-- None -->
    </route>
    <route id="pt_bus_236B:0" edges="49874192 360922569#0 360922569#1 613070677#0 981022848#0 360929410#2 981575457#0 981575457#1 358980596#0 358980596#1 981575456 358980597#0 358980598 360935207#0 360935207#1 360935208#0 360935208#1 360935208#2 349367691 474643000#1 50301275#0 50301275#1" >
        <stop busStop="5366197388" duration="30.00" until="44.0"/> <!-- None -->
    </route>
    <route id="pt_bus_223A:0" edges="-240272342#1 -240272342#0 -193030336 -259401634#1 -259401634#0 -259401642 -193030328#1 -507082100 193023737 368494313#0 504333064 50783634#0 50783634#2 50783634#3 50783634#4 368494305#0 368494305#1 368494305#2 231958644#1 231958644#2 231958644#3 957244973#0 957244973#2 368494304 406018091 758726401 368494306#1 50014718#1 50014718#3 50014718#4 406062453#0 406062453#1 49874201 396388572#0 396388572#1 396388572#2 225971208#0 225971208#2 225971208#3 344153349 50013146#0 50013146#2 50676752#0 50676752#1 358563417#1" >
        <stop busStop="-4977276388" duration="30.00" until="37.0"/> <!-- None -->
    </route>
    <route id="pt_bus_212F:0" edges="-240272342#1 -240272342#0 -193030336 -259401634#1 -259401634#0 -259401642 -193030328#1 -507082100 193023737 368494313#0 504333064 50783634#0 50783634#2 50783634#3 50783634#4 368494305#0 368494305#1 368494305#2 231958644#1 231958644#2 231958644#3 957244973#0 957244973#2 368494304 406018091 758726401 368494306#1 50014718#1 50014718#3 50014718#4 406062453#0 406062453#1 49874201 396388572#0 396388572#1 396388572#2 225971208#0 225971208#2 225971208#3 344153349 50013146#0 50013146#2 50676752#0 50676752#1 358563417#1" >
        <stop busStop="-4977276388" duration="30.00" until="38.0"/> <!-- None -->
    </route>
    <route id="pt_bus_:13" edges="386046545#0 386046545#1 360929856#0 360929856#0 386046546#1 360930639#0 360930639#1 503896683#0 503896683#1 503896683#2 503896683#3 358980596#0 358980596#1 981575456 358980597#0 358980598 360935207#0 360935207#1 360935208#0 360935208#1 360935208#2 193189977 193189978 462356174 462356169#0 344153357 457493243#2 462356162#0 462356162#1 344153358#0 499726265 231972355#0 231972355#1 49793804#1 49793804#2 507082099 301521095#0 301521095#2 368494308#0 368494308#2 365729211#1 193809813#0 193809813#1 193809813#2 193809813#3 193809813#5 -368708847#5 -368708847#4 -368708847#3 -368708847#2 -368708847#1 -368708847#0 -253047824#2 -253047824#1 -253047824#0 200672740#3" >
        <stop busStop="5111887937" duration="30.00" until="56.0"/> <!-- None -->
        <stop busStop="5111887938" duration="30.00" until="401.0"/> <!-- None -->
    </route>
    <route id="pt_bus_Caçapava_do_Sul_→_Santa_Maria_via_São_Sepé:0" edges="960208352 960208351 347627305 958982833 347627304 958729619 958729620 960208349 958969752 711550590#0 711550590#1 711550589#2 958969753#0 958729621 958982834 388521769 960208353 958969757 958729622 960208354 960208355 347627306 960208356 960208358 960208357 960208359 958969760 958982830 958982835 387565205 162070698#0 162070698#1 960208361 960208360 960208362 352049278 958914458#0 958914458#1 958914458#2 260232099#0 260232099#1 260232099#2 883262172#0 883262172#2 883262172#3 883262172#4 883262172#5 709043445 658557318 504033184 658557319#0 658557319#1 658557317#0 658557317#1 504033182 822002096#0 -305068793#2 -305068793#1 -305068793#0 -305135153#0 -390517208#1 -390517208#0 -305135154#1 -305135154#0 -259431917#2 199341682 -231288092#1 -231288092#0 -390529701#2 -390529701#0 -191714268#1 -191714268#0 -390999304 193391674 -305172100 -369303818#1 -369303818#0 -199341740 192428837#12 192428837#13 192428837#14 192428837#15" >
        <stop busStop="6083737966" duration="30.00" until="104.0"/> <!-- None -->
    </route>
    <route id="pt_bus_212J:0" edges="341783022 458140049#0 193189977 193189978 462356174 462356169#0 344153357 457493243#2 462356162#0 462356162#1 344153358#0 499726265 231972355#0 231972355#1 49793804#1 49793804#2 507082099 301521095#0 301521095#2 368494308#0 368494308#2 365729211#1 193809813#0 193809813#1 193809813#2 193809813#3 193809813#5 -366528694#6 -366528694#5 -366528694#4 -366528694#3 -366528694#2 -366528694#1 -366528694#0 -193032314#1 -193032314#0 469561204 469561203 193310442#2 406062451#0 406062451#1 301521095#0 301521095#2 368494308#0 368494308#2 365729211#1 471955628 240532999#0 966846614 193811246#1 368494310#1 193026197#0 193026197#1 368494311#0 365729211#1 471955628 240532999#0 966846614 193811246#1 368494310#1 193026196#1 193026196#2 193026196#5 193026196#6 193026196#7 302852084 204278072#2 259401636#0 259401636#1 406229215 258524194#1" >
        <stop busStop="4686905462" duration="30.00" until="31.0"/> <!-- None -->
        <stop busStop="5286257146" duration="30.00" until="186.0"/> <!-- None -->
        <stop busStop="4543925335" duration="30.00" until="308.0"/> <!-- None -->
        <stop busStop="3729684442" duration="30.00" until="481.0"/> <!-- None -->
        <stop busStop="3729684438" duration="30.00" until="537.0"/> <!-- None -->
        <stop busStop="2435446332" duration="30.00" until="568.0"/> <!-- None -->
        <stop busStop="3729684436" duration="30.00" until="661.0"/> <!-- None -->
        <stop busStop="2435446329" duration="30.00" until="759.0"/> <!-- None -->
        <stop busStop="3729684432" duration="30.00" until="813.0"/> <!-- None -->
        <stop busStop="2435446324" duration="30.00" until="844.0"/> <!-- None -->
    </route>
    <route id="pt_bus_155C:0" edges="910969919 910259244#0 368559564#0 368559564#1 368559564#2 978472962#0 910969916#0 539662254#0 539662254#1 978478718#0 390523325#1 390523325#2 193131673 981022849 391275417#0 539662254#0 539662254#1 978478718#0 938426328#1 406313403#0 406313403#1 978481204#0 368091905#1 344153330#1 368091899#0 368091899#1 368091899#2 368091905#1 344153330#1 368559565#1 344153329#0 540758088#0 540758088#1 540758086 978487723#0 978487723#1 55354008 369024790#0 369024790#1 369024790#2 978487722#0 368091941#1 49874201 396388572#0 396388572#1 396388572#2 225971208#0 225971208#2 225971208#3 344153349 50013146#0 50013146#2 50676752#0 50676752#1 358563417#1" >
        <stop busStop="2656636428" duration="30.00" until="102.0"/> <!-- None -->
        <stop busStop="6519748647" duration="30.00" until="139.0"/> <!-- None -->
        <stop busStop="5274441699" duration="30.00" until="218.0"/> <!-- None -->
        <stop busStop="6519748645" duration="30.00" until="327.0"/> <!-- None -->
        <stop busStop="4945877796" duration="30.00" until="422.0"/> <!-- None -->
        <stop busStop="4945877795" duration="30.00" until="507.0"/> <!-- None -->
        <stop busStop="4696675294" duration="30.00" until="669.0"/> <!-- None -->
        <stop busStop="4696675292" duration="30.00" until="700.0"/> <!-- None -->
        <stop busStop="3509128042" duration="30.00" until="819.0"/> <!-- None -->
        <stop busStop="6405256169" duration="30.00" until="850.0"/> <!-- None -->
        <stop busStop="4603748637" duration="30.00" until="913.0"/> <!-- None -->
    </route>
    <route id="pt_bus_São_Sepé_→_Santa_Maria:0" edges="960208352 960208351 347627305 958982833 347627304 958729619 958729620 960208349 958969752 711550590#0 711550590#1 711550589#2 958969753#0 958729621 958982834 388521769 960208353 958969757 958729622 960208354 960208355 347627306 960208356 960208358 960208357 960208359 958969760 958982830 958982835 387565205 162070698#0 162070698#1 960208361 960208360 960208362 352049278 958914458#0 958914458#1 958914458#2 260232099#0 260232099#1 260232099#2 883262172#0 883262172#2 883262172#3 883262172#4 883262172#5 709043445 658557318 504033184 658557319#0 658557319#1 658557317#0 658557317#1 504033182 822002096#0 -305068793#2 -305068793#1 -305068793#0 -305135153#0 -390517208#1 -390517208#0 -305135154#1 -305135154#0 -259431917#2 199341682 -231288092#1 -231288092#0 -390529701#2 -390529701#0 -191714268#1 -191714268#0 -390999304 193391674 -305172100 -369303818#1 -369303818#0 -199341740 192428837#12 192428837#13 192428837#14 192428837#15" >
        <stop busStop="6083737966" duration="30.00" until="139.0"/> <!-- None -->
    </route>
    <route id="pt_bus_:37" edges="183240543#0 183240543#1 258407155 368091918#0 368091918#1 368091918#2 421207838#0 421207838#1 303082602#0 303082602#1 303082602#2 303082602#3 303082602#4 303082602#5 303082602#6 303082602#7 303082602#8 167596743#0 167596743#1 167596743#2 568366602#0 568366602#1 269113623 259241347 647474238#0 647474238#1 167596741#0 167596741#1 167596741#2 167596741#3 167596741#4 167596741#5 167596741#6 167596741#7 167596741#8 303082600 323729614 421207839 421207840#0 167596738 911407629 167596744#0 167596744#1 258407162 258407143 258407145 258407148#0 258407148#1 258407148#2 258407148#3 777287759#0 777287759#1 777287759#2 777287759#3 777287759#4 181326582 183332637#0 183332637#1 183332637#2 183332637#3 183332637#4 183332637#5 303082574 303082573#2 303082573#3 303082573#4 303082573#5 303082573#6 303082573#7 363460869 363460870#0 363460870#1 303082577#2 303082577#3 303082580#1 303082580#2 303082580#3 303082580#4 303082580#5 303082575#1 181326564 303082578#1 483777311#0 483777311#1 777287757#0 777287757#1 258407150#0 258407150#1 258407150#2 258407150#5 652377499#0 652377499#1 569156539#0 569156539#1 548552297#2 548552297#3 548552297#4 548552297#5 548552297#6 548552292 569156537#0 569156537#1 569156537#2 569156537#3 196865714#0 196865714#1 196865714#2 196865714#3 196865714#4 196865714#5 196865714#6 196865714#7 196865714#8 196865714#9 196865714#10 196865714#11 196865714#12 196865714#13 196865714#14 196865714#15 196865714#16 196865714#17 196865714#18 196865714#19 196865714#20 372510397#1 372510397#2 372510397#3 372510397#4 372510396#1 372510396#2 372510396#3 372510396#4 372510396#6 372510396#7 372510396#8 372510396#9 372510396#10 372510396#12 412089752#1 412089752#2 462002390#1 485454492#0 485454492#1 459923736#0 459923736#1 478958536 909086969 162070700 293769045 199426657#0 199426657#1 199426657#2 487584708#0 487584708#1 487584708#2 487584708#3 487584708#4 487584708#5 910969939 910969938 647084084 910969945 305172080#1 305172080#3 647909245 376901212 259298203 259223944 259223945 910969931 162070745 494798606 369303816 231972356 162070715#0 162070715#1 -199341740 192428837#12 192428837#13 192428837#14 192428837#15" >
        <stop busStop="3305119529" duration="30.00" until="173.0"/> <!-- Rodoviária de Camobi -->
    </route>
    <route id="pt_bus_:23" edges="55354009#8 369024788#0 369024788#1 344153357 457493243#2 462356162#0 462356162#1 475997383#1 475997383#2 475997382#0 475997382#1 475997382#2 475997382#3 978455013#1 978455013#2 369024791#0 369024791#1 191706895#0 191706895#1 978455012#0 368091899#0 368091899#1 368091899#2 368091905#1 344153330#1 368091899#0 368091899#1 368091899#2 978456482 504338188#0 978456483#0 525268747 978462764#0 368559006#0 408999833#1 978471464 910259243#0 225971204" >
        <stop busStop="3728594979" duration="30.00" until="42.0"/> <!-- None -->
        <stop busStop="3728594978@5482683" duration="30.00" until="73.0"/> <!-- None -->
        <stop busStop="4578488447" duration="30.00" until="188.0"/> <!-- None -->
        <stop busStop="4696675289" duration="30.00" until="310.0"/> <!-- None -->
        <stop busStop="4696675290" duration="30.00" until="401.0"/> <!-- None -->
        <stop busStop="5274441694" duration="30.00" until="501.0"/> <!-- None -->
        <stop busStop="6519748646" duration="30.00" until="532.0"/> <!-- None -->
        <stop busStop="2656636367" duration="30.00" until="584.0"/> <!-- None -->
        <stop busStop="6519748644" duration="30.00" until="615.0"/> <!-- None -->
        <stop busStop="2656636422" duration="30.00" until="674.0"/> <!-- None -->
        <stop busStop="6519748648" duration="30.00" until="705.0"/> <!-- None -->
        <stop busStop="2656636452" duration="30.00" until="831.0"/> <!-- None -->
    </route>
    <route id="pt_bus_:32" edges="183240543#0 183240543#1 258407155 368091918#0 368091918#1 368091918#2 -678727293 -368091918#1 -368091918#0 183191444#0 183191444#1 183191444#2 183191444#4 183191444#5 183191444#6 183191444#7 183191444#8 183191444#10 183191444#11 183191444#12 183191444#13 183191444#14 183191444#15 183191444#16 183191444#17 183191444#18 303082581#0 303082581#1 303082581#2 303082581#3 303082581#5 363456592#0 363456592#1 363456592#2 363457760#0 363457760#1 303082572#0 303082572#1 303082572#2 303082572#3 303082572#4 303082572#5 363458497#0 363458497#2 363458497#3 363458497#4 297176956#0 297176956#2 297176956#3 297176956#4 297176956#6 297176956#7 297176956#8 297176956#9 297176956#10 297176956#11 297176956#12 297176955 303082574 303082573#2 303082573#3 303082573#4 303082573#5 303082573#6 303082573#7 363460869 363460870#0 363460870#1 303082577#2 303082577#3 303082580#1 303082580#2 303082580#3 303082580#4 303082580#5 303082575#1 181326564 303082578#1 483777311#0 483777311#1 777287757#0 777287757#1 258407150#0 258407150#1 258407150#2 258407150#5 652377499#0 652377499#1 569156539#0 569156539#1 548552297#2 548552297#3 548552297#4 548552297#5 548552297#6 548552292 569156537#0 569156537#1 569156537#2 569156537#3 196865714#0 196865714#1 196865714#2 196865714#3 196865714#4 196865714#5 196865714#6 196865714#7 196865714#8 196865714#9 196865714#10 196865714#11 196865714#12 196865714#13 196865714#14 196865714#15 196865714#16 196865714#17 196865714#18 196865714#19 196865714#20 372510397#1 372510397#2 372510397#3 372510397#4 372510396#1 372510396#2 372510396#3 372510396#4 372510396#6 372510396#7 372510396#8 372510396#9 372510396#10 372510396#12 412089752#1 412089752#2 462002390#1 485454492#0 485454492#1 459923736#0 459923736#1 478958536 909086969 162070700 293769045 199426657#0 199426657#1 199426657#2 487584708#0 487584708#1 487584708#2 487584708#3 487584708#4 487584708#5 910969939 910969938 647084084 910969945 305172080#1 305172080#3 647909245 376901212 259298203 259223944 259223945 910969931 162070745 494798606 369303816 231972356 162070715#0 162070715#1 -199341740 192428837#12 192428837#13 192428837#14 192428837#15" >
        <stop busStop="6535841784" duration="30.00" until="71.0"/> <!-- None -->
    </route>
    <route id="pt_bus_Santana_da_Boa_Vista_→_Santa_Maria:0" edges="960208352 960208351 347627305 958982833 347627304 958729619 958729620 960208349 958969752 711550590#0 711550590#1 711550589#2 958969753#0 958729621 958982834 388521769 960208353 958969757 958729622 960208354 960208355 347627306 960208356 960208358 960208357 960208359 958969760 958982830 958982835 387565205 162070698#0 162070698#1 960208361 960208360 960208362 352049278 958914458#0 958914458#1 958914458#2 260232099#0 260232099#1 260232099#2 883262172#0 883262172#2 883262172#3 883262172#4 883262172#5 709043445 658557318 504033184 658557319#0 658557319#1 658557317#0 658557317#1 504033182 822002096#0 -305068793#2 -305068793#1 -305068793#0 -305135153#0 -390517208#1 -390517208#0 -305135154#1 -305135154#0 -259431917#2 199341682 -231288092#1 -231288092#0 -390529701#2 -390529701#0 -191714268#1 -191714268#0 -390999304 193391674 -305172100 -369303818#1 -369303818#0 -199341740 192428837#12 192428837#13 192428837#14 192428837#15" >
        <stop busStop="6083737966" duration="30.00" until="168.0"/> <!-- None -->
    </route>
    <route id="pt_bus_541C:0" edges="-258524194#1 -258524194#0 -259401636#1 -259401636#0 -204278072#2 -407392594 -193026196#7 -193026196#6 -193026196#5 -193026196#2 -193026196#1 193026197#0 193026197#1 368494311#0 231958644#1 231958644#2 231958644#3 957244973#0 957244973#2 368494304 406018091 758726401 368494306#1 50014718#1 50014718#3 50014718#4 406062453#0 406062453#1 49874201 396388572#0 396388572#1 396388572#2 225971208#0 225971208#2 225971208#3 344153349 50013146#0 50013146#2 50676752#0 50676752#1 358563417#1" >
        <stop busStop="-3729788833" duration="30.00" until="250.0"/> <!-- None -->
        <stop busStop="-2402775161" duration="30.00" until="281.0"/> <!-- None -->
        <stop busStop="-3729684433" duration="30.00" until="386.0"/> <!-- None -->
        <stop busStop="-2435446325" duration="30.00" until="420.0"/> <!-- None -->
        <stop busStop="3729684437" duration="30.00" until="495.0"/> <!-- None -->
        <stop busStop="2435446330" duration="30.00" until="526.0"/> <!-- None -->
        <stop busStop="3729684443" duration="30.00" until="621.0"/> <!-- None -->
        <stop busStop="6405256168" duration="30.00" until="652.0"/> <!-- None -->
        <stop busStop="3509128042" duration="30.00" until="831.0"/> <!-- None -->
        <stop busStop="6405256169" duration="30.00" until="862.0"/> <!-- None -->
        <stop busStop="4603748637" duration="30.00" until="924.0"/> <!-- None -->
    </route>
    <route id="pt_bus_Rosário_do_Sul_→_Santa_Maria:0" edges="960208352 960208351 347627305 958982833 347627304 958729619 958729620 960208349 958969752 711550590#0 711550590#1 711550589#2 958969753#0 958729621 958982834 388521769 960208353 958969757 958729622 960208354 960208355 347627306 960208356 960208358 960208357 960208359 958969760 958982830 958982835 387565205 162070698#0 162070698#1 960208361 960208360 960208362 352049278 958914458#0 958914458#1 958914458#2 260232099#0 260232099#1 260232099#2 883262172#0 883262172#2 883262172#3 883262172#4 883262172#5 709043445 658557318 504033184 658557319#0 658557319#1 658557317#0 658557317#1 504033182 822002096#0 -305068793#2 -305068793#1 -305068793#0 -305135153#0 -390517208#1 -390517208#0 -305135154#1 -305135154#0 -259431917#2 199341682 -231288092#1 -231288092#0 -390529701#2 -390529701#0 -191714268#1 -191714268#0 -390999304 193391674 -305172100 -369303818#1 -369303818#0 -199341740 192428837#12 192428837#13 192428837#14 192428837#15" >
        <stop busStop="6083737966" duration="30.00" until="199.0"/> <!-- None -->
    </route>