<?xml version="1.0" encoding="UTF-8"?>
<!-- generated on 2021-09-22 08:24:44.449000 by $Id: ptlines2flows.py v1_3_1+0313-ccb31df3eb jakob.erdmann@dlr.de 2019-09-02 13:26:32 +0200 $ v1_10_0+0000-83496a5972
  options: 
-->
<routes xmlns:xsi="http://www.w3.org/2001/XMLSchema-instance" xsi:noNamespaceSchemaLocation="http://sumo.dlr.de/xsd/routes_file.xsd">
    <vType id="pt_bus" vClass="bus"/>
    <vType id="pt_tram" vClass="tram"/>
    <vType id="pt_train" vClass="rail"/>
    <vType id="pt_subway" vClass="rail_urban"/>
    <vType id="pt_light_rail" vClass="rail_urban"/>
    <vType id="pt_monorail" vClass="rail"/>
    <vType id="pt_trolleybus" vClass="bus"/>
    <vType id="pt_aerialway" vClass="bus"/>
    <vType id="pt_ferry" vClass="ship"/>
    <trip id="0_bus_223G:0" type="pt_bus" depart="0" departLane="best" from="-240272342#1" to="358563417#1">
        <stop busStop="-4977276388" duration="30"/>
    </trip>
    <trip id="1_bus_212A:0" type="pt_bus" depart="3" departLane="best" from="341783022" to="-406078190">
        <stop busStop="4686905462" duration="30"/>
        <stop busStop="2458620746" duration="30"/>
        <stop busStop="4544828402" duration="30"/>
    </trip>
    <trip id="2_bus_212J:0" type="pt_bus" depart="6" departLane="best" from="341783022" to="258524194#1">
        <stop busStop="4686905462" duration="30"/>
        <stop busStop="5286257146" duration="30"/>
        <stop busStop="4543925335" duration="30"/>
        <stop busStop="3729684442" duration="30"/>
        <stop busStop="3729684438" duration="30"/>
        <stop busStop="2435446332" duration="30"/>
        <stop busStop="3729684436" duration="30"/>
        <stop busStop="2435446329" duration="30"/>
        <stop busStop="3729684432" duration="30"/>
        <stop busStop="2435446324" duration="30"/>
    </trip>
    <trip id="3_bus_155C:0" type="pt_bus" depart="11" departLane="best" from="910969919" to="358563417#1">
        <stop busStop="2656636428" duration="30"/>
        <stop busStop="6519748647" duration="30"/>
        <stop busStop="5274441699" duration="30"/>
        <stop busStop="6519748645" duration="30"/>
        <stop busStop="4945877796" duration="30"/>
        <stop busStop="4945877795" duration="30"/>
        <stop busStop="4696675294" duration="30"/>
        <stop busStop="4696675292" duration="30"/>
        <stop busStop="3509128042" duration="30"/>
        <stop busStop="6405256169" duration="30"/>
        <stop busStop="4603748637" duration="30"/>
    </trip>
    <trip id="4_bus_155C:1" type="pt_bus" depart="15" departLane="best" from="341783022" to="225971204">
        <stop busStop="4017965051" duration="30"/>
        <stop busStop="4578488447" duration="30"/>
        <stop busStop="4696675289" duration="30"/>
        <stop busStop="4696675290" duration="30"/>
        <stop busStop="5274441694" duration="30"/>
        <stop busStop="6519748646" duration="30"/>
        <stop busStop="2656636367" duration="30"/>
        <stop busStop="6519748644" duration="30"/>
        <stop busStop="2656636422" duration="30"/>
        <stop busStop="6519748648" duration="30"/>
        <stop busStop="2656636452" duration="30"/>
    </trip>
    <trip id="5_bus_:0" type="pt_bus" depart="15" departLane="best" from="720014524" to="368091918#2">
        <stop busStop="2093445993" duration="30"/>
        <stop busStop="3305119535" duration="30"/>
        <stop busStop="-4210137915" duration="30"/>
        <stop busStop="-3393236470" duration="30"/>
        <stop busStop="-4524015322" duration="30"/>
        <stop busStop="2984391681" duration="30"/>
    </trip>
    <trip id="6_bus_:1" type="pt_bus" depart="17" departLane="best" from="720014524" to="368091918#2">
        <stop busStop="2093445993" duration="30"/>
        <stop busStop="3305119535" duration="30"/>
        <stop busStop="-4210137915" duration="30"/>
        <stop busStop="-3393236470" duration="30"/>
        <stop busStop="-4524015322" duration="30"/>
        <stop busStop="2984391681" duration="30"/>
    </trip>
    <trip id="7_bus_:2" type="pt_bus" depart="19" departLane="best" from="720014524" to="368091918#2">
        <stop busStop="2093445993" duration="30"/>
        <stop busStop="3305119535" duration="30"/>
        <stop busStop="-3393236470" duration="30"/>
        <stop busStop="-4210137915" duration="30"/>
        <stop busStop="-4524015322" duration="30"/>
        <stop busStop="2984391681" duration="30"/>
    </trip>
    <trip id="8_bus_Santa_Maria_→_Sobradinho_via_Três_Vendas:0" type="pt_bus" depart="27" departLane="best" from="720014524" to="368091918#2">
        <stop busStop="3305119535" duration="30"/>
        <stop busStop="-4210137915" duration="30"/>
        <stop busStop="-3393236470" duration="30"/>
        <stop busStop="-4524015322" duration="30"/>
        <stop busStop="2984391681" duration="30"/>
    </trip>
    <trip id="9_bus_Santa_Maria_→_Sobradinho_via_Vila_Rosa:0" type="pt_bus" depart="28" departLane="best" from="720014524" to="258407156#2">
        <stop busStop="3305119535" duration="30"/>
    </trip>
    <trip id="10_bus_:3" type="pt_bus" depart="30" departLane="best" from="720014524" to="368091918#2">
        <stop busStop="2093445993" duration="30"/>
        <stop busStop="3305119535" duration="30"/>
        <stop busStop="-4210137915" duration="30"/>
        <stop busStop="-3393236470" duration="30"/>
        <stop busStop="-4524015322" duration="30"/>
        <stop busStop="2984391681" duration="30"/>
    </trip>
    <trip id="11_bus_:4" type="pt_bus" depart="34" departLane="best" from="720014524" to="258407156#2">
        <stop busStop="3305119535" duration="30"/>
    </trip>
    <trip id="12_bus_:5" type="pt_bus" depart="38" departLane="best" from="720014524" to="258407156#2">
        <stop busStop="2093445993" duration="30"/>
        <stop busStop="3305119535" duration="30"/>
    </trip>
    <trip id="13_bus_:6" type="pt_bus" depart="41" departLane="best" from="720014524" to="368091918#2">
        <stop busStop="2093445993" duration="30"/>
        <stop busStop="3305119535" duration="30"/>
        <stop busStop="-4210137915" duration="30"/>
        <stop busStop="-3393236470" duration="30"/>
        <stop busStop="-4524015322" duration="30"/>
        <stop busStop="2984391681" duration="30"/>
    </trip>
    <trip id="14_bus_:7" type="pt_bus" depart="42" departLane="best" from="720014524" to="368091918#2">
        <stop busStop="3305119535" duration="30"/>
        <stop busStop="-4210137915" duration="30"/>
        <stop busStop="-3393236470" duration="30"/>
        <stop busStop="-4524015322" duration="30"/>
        <stop busStop="2984391681" duration="30"/>
    </trip>
    <trip id="15_bus_:8" type="pt_bus" depart="42" departLane="best" from="720014524" to="368091918#2">
        <stop busStop="3305119535" duration="30"/>
        <stop busStop="-4210137915" duration="30"/>
        <stop busStop="-3393236470" duration="30"/>
        <stop busStop="-4524015322" duration="30"/>
        <stop busStop="2984391681" duration="30"/>
    </trip>
    <trip id="16_bus_Santa_Maria_→_Estrela_via_Santa_Cruz_e_Venâncio_Aires:0" type="pt_bus" depart="47" departLane="best" from="-720014553" to="368091918#2">
        <stop busStop="3305119535" duration="30"/>
        <stop busStop="-4210137915" duration="30"/>
        <stop busStop="-3393236470" duration="30"/>
        <stop busStop="-4524015322" duration="30"/>
        <stop busStop="2984391681" duration="30"/>
    </trip>
    <trip id="17_bus_0437:0" type="pt_bus" depart="51" departLane="best" from="720014524" to="368091918#2">
        <stop busStop="2093445993" duration="30"/>
        <stop busStop="3305119535" duration="30"/>
        <stop busStop="-4210137915" duration="30"/>
        <stop busStop="-3393236470" duration="30"/>
        <stop busStop="-4524015322" duration="30"/>
        <stop busStop="2984391681" duration="30"/>
    </trip>
    <trip id="18_bus_:9" type="pt_bus" depart="52" departLane="best" from="720014524" to="49874189#8">
        <stop busStop="2093445993" duration="30"/>
        <stop busStop="3729684441" duration="30"/>
        <stop busStop="6405256167" duration="30"/>
        <stop busStop="2656636367" duration="30"/>
        <stop busStop="6519748644" duration="30"/>
    </trip>
    <trip id="19_bus_:10" type="pt_bus" depart="54" departLane="best" from="720014524" to="49874189#8">
        <stop busStop="2093445993" duration="30"/>
        <stop busStop="3729684441" duration="30"/>
        <stop busStop="6405256167" duration="30"/>
        <stop busStop="2656636367" duration="30"/>
        <stop busStop="6519748644" duration="30"/>
    </trip>
    <trip id="20_bus_:11" type="pt_bus" depart="55" departLane="best" from="720014524" to="49874189#8">
        <stop busStop="2093445993" duration="30"/>
        <stop busStop="3729684441" duration="30"/>
        <stop busStop="6405256167" duration="30"/>
        <stop busStop="2656636367" duration="30"/>
        <stop busStop="6519748644" duration="30"/>
    </trip>
    <trip id="21_bus_541A:0" type="pt_bus" depart="58" departLane="best" from="-258524194#1" to="358563417#1">
        <stop busStop="-3729788833" duration="30"/>
        <stop busStop="-2402775161" duration="30"/>
        <stop busStop="-3729684433" duration="30"/>
        <stop busStop="-2435446325" duration="30"/>
        <stop busStop="3729684437" duration="30"/>
        <stop busStop="2435446330" duration="30"/>
        <stop busStop="3729684443" duration="30"/>
        <stop busStop="6405256168" duration="30"/>
        <stop busStop="3509128042" duration="30"/>
        <stop busStop="6405256169" duration="30"/>
        <stop busStop="4603748637" duration="30"/>
    </trip>
    <trip id="22_bus_541B:0" type="pt_bus" depart="58" departLane="best" from="-258524194#1" to="358563417#1">
        <stop busStop="-3729788833" duration="30"/>
        <stop busStop="-2402775161" duration="30"/>
        <stop busStop="-3729684433" duration="30"/>
        <stop busStop="-2435446325" duration="30"/>
        <stop busStop="3729684437" duration="30"/>
        <stop busStop="2435446330" duration="30"/>
        <stop busStop="4972835948" duration="30"/>
        <stop busStop="4544828405" duration="30"/>
        <stop busStop="2458620748" duration="30"/>
        <stop busStop="4543789056" duration="30"/>
        <stop busStop="3729745011" duration="30"/>
        <stop busStop="2458620756" duration="30"/>
        <stop busStop="6568973648" duration="30"/>
        <stop busStop="6568973647" duration="30"/>
        <stop busStop="6568973650" duration="30"/>
        <stop busStop="6568973649" duration="30"/>
        <stop busStop="-4906911067" duration="30"/>
        <stop busStop="-4906911065" duration="30"/>
        <stop busStop="2458620768" duration="30"/>
        <stop busStop="4543789051" duration="30"/>
        <stop busStop="3729745012" duration="30"/>
        <stop busStop="2458620763" duration="30"/>
        <stop busStop="3361554591" duration="30"/>
        <stop busStop="3729745010" duration="30"/>
        <stop busStop="3729745007" duration="30"/>
        <stop busStop="2458883092" duration="30"/>
        <stop busStop="3729745006" duration="30"/>
        <stop busStop="2458883091" duration="30"/>
        <stop busStop="3729684443" duration="30"/>
        <stop busStop="6405256168" duration="30"/>
        <stop busStop="3509128042" duration="30"/>
        <stop busStop="6405256169" duration="30"/>
        <stop busStop="4603748637" duration="30"/>
    </trip>
    <trip id="23_bus_541C:0" type="pt_bus" depart="59" departLane="best" from="-258524194#1" to="358563417#1">
        <stop busStop="-3729788833" duration="30"/>
        <stop busStop="-2402775161" duration="30"/>
        <stop busStop="-3729684433" duration="30"/>
        <stop busStop="-2435446325" duration="30"/>
        <stop busStop="3729684437" duration="30"/>
        <stop busStop="2435446330" duration="30"/>
        <stop busStop="3729684443" duration="30"/>
        <stop busStop="6405256168" duration="30"/>
        <stop busStop="3509128042" duration="30"/>
        <stop busStop="6405256169" duration="30"/>
        <stop busStop="4603748637" duration="30"/>
    </trip>
    <trip id="24_bus_:12" type="pt_bus" depart="60" departLane="best" from="341783022" to="-286663226">
        <stop busStop="5286257146" duration="30"/>
        <stop busStop="4543925335" duration="30"/>
        <stop busStop="3729684442" duration="30"/>
        <stop busStop="3729684438" duration="30"/>
        <stop busStop="2435446332" duration="30"/>
        <stop busStop="3729684440" duration="30"/>
        <stop busStop="2435446333" duration="30"/>
        <stop busStop="4089238817" duration="30"/>
        <stop busStop="2435470839" duration="30"/>
        <stop busStop="2035590397" duration="30"/>
        <stop busStop="4089238822" duration="30"/>
        <stop busStop="4578520183" duration="30"/>
        <stop busStop="2449072192" duration="30"/>
        <stop busStop="4578520180" duration="30"/>
        <stop busStop="2449072194" duration="30"/>
        <stop busStop="4578520178" duration="30"/>
        <stop busStop="2449072196" duration="30"/>
        <stop busStop="-5144139043" duration="30"/>
    </trip>
    <trip id="25_bus_:13" type="pt_bus" depart="65" departLane="best" from="386046545#0" to="200672740#3">
        <stop busStop="5111887937" duration="30"/>
        <stop busStop="5111887938" duration="30"/>
    </trip>
    <trip id="26_bus_:14" type="pt_bus" depart="66" departLane="best" from="200672740#3" to="360935211#3">
        <stop busStop="3729745004" duration="30"/>
        <stop busStop="2475475690" duration="30"/>
        <stop busStop="3729684439" duration="30"/>
        <stop busStop="2435446331" duration="30"/>
        <stop busStop="3729684437" duration="30"/>
        <stop busStop="2435446330" duration="30"/>
        <stop busStop="3729684443" duration="30"/>
        <stop busStop="6405256168" duration="30"/>
        <stop busStop="3509128042" duration="30"/>
        <stop busStop="6405256169" duration="30"/>
        <stop busStop="4603748637" duration="30"/>
    </trip>
    <trip id="27_bus_:15" type="pt_bus" depart="72" departLane="best" from="341783022" to="388508702">
        <stop busStop="5286257146" duration="30"/>
        <stop busStop="2458620748" duration="30"/>
        <stop busStop="4543789056" duration="30"/>
        <stop busStop="3729745011" duration="30"/>
        <stop busStop="2458620756" duration="30"/>
        <stop busStop="-4906911067" duration="30"/>
        <stop busStop="-4906911065" duration="30"/>
        <stop busStop="2458620768" duration="30"/>
        <stop busStop="4543789051" duration="30"/>
        <stop busStop="3729745012" duration="30"/>
        <stop busStop="2458620763" duration="30"/>
    </trip>
    <trip id="28_bus_541I:0" type="pt_bus" depart="77" departLane="best" from="341783022" to="258524194#1">
        <stop busStop="4686905462" duration="30"/>
        <stop busStop="5286257146" duration="30"/>
        <stop busStop="4543925335" duration="30"/>
        <stop busStop="3729684442" duration="30"/>
        <stop busStop="3729684438" duration="30"/>
        <stop busStop="2435446332" duration="30"/>
        <stop busStop="3729684436" duration="30"/>
        <stop busStop="2435446329" duration="30"/>
        <stop busStop="3729684432" duration="30"/>
        <stop busStop="2435446324" duration="30"/>
    </trip>
    <trip id="29_bus_541M:0" type="pt_bus" depart="79" departLane="best" from="341783022" to="258524194#1">
        <stop busStop="4686905462" duration="30"/>
        <stop busStop="5286257146" duration="30"/>
        <stop busStop="4543925335" duration="30"/>
        <stop busStop="3729684442" duration="30"/>
        <stop busStop="3729684438" duration="30"/>
        <stop busStop="2435446332" duration="30"/>
        <stop busStop="3729684436" duration="30"/>
        <stop busStop="2435446329" duration="30"/>
        <stop busStop="3729684432" duration="30"/>
        <stop busStop="2435446324" duration="30"/>
    </trip>
    <trip id="30_bus_541K:0" type="pt_bus" depart="91" departLane="best" from="341783022" to="-270890210#0">
        <stop busStop="4686905462" duration="30"/>
        <stop busStop="5286257146" duration="30"/>
        <stop busStop="4543925335" duration="30"/>
        <stop busStop="3729684442" duration="30"/>
        <stop busStop="3729684438" duration="30"/>
        <stop busStop="2435446332" duration="30"/>
        <stop busStop="3729684436" duration="30"/>
        <stop busStop="2435446329" duration="30"/>
        <stop busStop="3729684432" duration="30"/>
        <stop busStop="2435446324" duration="30"/>
    </trip>
    <trip id="31_bus_541R:0" type="pt_bus" depart="93" departLane="best" from="341783022" to="258524194#1">
        <stop busStop="4686905462" duration="30"/>
        <stop busStop="5286257146" duration="30"/>
        <stop busStop="2458620748" duration="30"/>
        <stop busStop="4543789056" duration="30"/>
        <stop busStop="3729745011" duration="30"/>
        <stop busStop="2458620756" duration="30"/>
        <stop busStop="6568973648" duration="30"/>
        <stop busStop="6568973647" duration="30"/>
        <stop busStop="6568973650" duration="30"/>
        <stop busStop="6568973649" duration="30"/>
        <stop busStop="-4906911067" duration="30"/>
        <stop busStop="-4906911065" duration="30"/>
        <stop busStop="2458620768" duration="30"/>
        <stop busStop="4543789051" duration="30"/>
        <stop busStop="3729745012" duration="30"/>
        <stop busStop="2458620763" duration="30"/>
        <stop busStop="3361554591" duration="30"/>
        <stop busStop="3729745010" duration="30"/>
        <stop busStop="3729745007" duration="30"/>
        <stop busStop="2458883092" duration="30"/>
        <stop busStop="3729745006" duration="30"/>
        <stop busStop="2458883091" duration="30"/>
        <stop busStop="4543925335" duration="30"/>
        <stop busStop="3729684442" duration="30"/>
        <stop busStop="3729684438" duration="30"/>
        <stop busStop="2435446332" duration="30"/>
        <stop busStop="3729684436" duration="30"/>
        <stop busStop="2435446329" duration="30"/>
        <stop busStop="3729684432" duration="30"/>
        <stop busStop="2435446324" duration="30"/>
    </trip>
    <trip id="32_bus_541L:0" type="pt_bus" depart="98" departLane="best" from="-258524194#1" to="358563417#1">
        <stop busStop="-3729788833" duration="30"/>
        <stop busStop="-2402775161" duration="30"/>
        <stop busStop="-3729684433" duration="30"/>
        <stop busStop="-2435446325" duration="30"/>
        <stop busStop="3729684437" duration="30"/>
        <stop busStop="2435446330" duration="30"/>
        <stop busStop="3729684443" duration="30"/>
        <stop busStop="6405256168" duration="30"/>
        <stop busStop="3509128042" duration="30"/>
        <stop busStop="6405256169" duration="30"/>
        <stop busStop="4603748637" duration="30"/>
    </trip>
    <trip id="33_bus_541T:0" type="pt_bus" depart="99" departLane="best" from="341783022" to="-270890210#0">
        <stop busStop="4686905462" duration="30"/>
        <stop busStop="5286257146" duration="30"/>
        <stop busStop="4543925335" duration="30"/>
        <stop busStop="3729684442" duration="30"/>
        <stop busStop="3729684438" duration="30"/>
        <stop busStop="2435446332" duration="30"/>
        <stop busStop="3729684436" duration="30"/>
        <stop busStop="2435446329" duration="30"/>
        <stop busStop="3729684432" duration="30"/>
        <stop busStop="2435446324" duration="30"/>
    </trip>
    <trip id="34_bus_541Q:0" type="pt_bus" depart="102" departLane="best" from="341783022" to="-270890210#0">
        <stop busStop="4686905462" duration="30"/>
        <stop busStop="5286257146" duration="30"/>
        <stop busStop="4543925335" duration="30"/>
        <stop busStop="3729684442" duration="30"/>
        <stop busStop="3729684438" duration="30"/>
        <stop busStop="2435446332" duration="30"/>
        <stop busStop="3729684436" duration="30"/>
        <stop busStop="2435446329" duration="30"/>
        <stop busStop="3729684432" duration="30"/>
        <stop busStop="2435446324" duration="30"/>
    </trip>
    <trip id="35_bus_:16" type="pt_bus" depart="107" departLane="best" from="183240543#0" to="358563417#1">
        <stop busStop="2786600728" duration="30"/>
        <stop busStop="4210137914" duration="30"/>
        <stop busStop="2786600697" duration="30"/>
        <stop busStop="4210137908" duration="30"/>
        <stop busStop="3798359680" duration="30"/>
        <stop busStop="4210137901" duration="30"/>
        <stop busStop="4210137906" duration="30"/>
        <stop busStop="6535732380" duration="30"/>
        <stop busStop="2989451350" duration="30"/>
        <stop busStop="6638909790" duration="30"/>
        <stop busStop="4210137905" duration="30"/>
        <stop busStop="4210137904" duration="30"/>
        <stop busStop="3798360865" duration="30"/>
        <stop busStop="6535732377" duration="30"/>
        <stop busStop="3798359745" duration="30"/>
        <stop busStop="6535732376" duration="30"/>
        <stop busStop="2985310317" duration="30"/>
        <stop busStop="6535732375" duration="30"/>
        <stop busStop="3393236460" duration="30"/>
        <stop busStop="4210137902" duration="30"/>
        <stop busStop="4544742352" duration="30"/>
        <stop busStop="6535732373" duration="30"/>
        <stop busStop="3883788923" duration="30"/>
        <stop busStop="6535732372" duration="30"/>
        <stop busStop="3883788940" duration="30"/>
        <stop busStop="6535732371" duration="30"/>
        <stop busStop="4181537567" duration="30"/>
        <stop busStop="4181537566" duration="30"/>
        <stop busStop="4181537565" duration="30"/>
        <stop busStop="4181537564" duration="30"/>
        <stop busStop="4181537563" duration="30"/>
        <stop busStop="4181537562" duration="30"/>
        <stop busStop="4181537561" duration="30"/>
        <stop busStop="4181537560" duration="30"/>
        <stop busStop="4181537559" duration="30"/>
        <stop busStop="4181537558" duration="30"/>
        <stop busStop="4181537556" duration="30"/>
        <stop busStop="4181537554" duration="30"/>
        <stop busStop="4181537557" duration="30"/>
        <stop busStop="4181537555" duration="30"/>
        <stop busStop="4943218551" duration="30"/>
        <stop busStop="4943218550" duration="30"/>
        <stop busStop="4949203578" duration="30"/>
        <stop busStop="4949203579" duration="30"/>
        <stop busStop="6076879113" duration="30"/>
        <stop busStop="5448109320" duration="30"/>
        <stop busStop="5448109722" duration="30"/>
        <stop busStop="5448109721" duration="30"/>
        <stop busStop="4578520181" duration="30"/>
        <stop busStop="2449072193" duration="30"/>
        <stop busStop="4578520182" duration="30"/>
        <stop busStop="2449072191" duration="30"/>
        <stop busStop="3756235203" duration="30"/>
        <stop busStop="4089238821" duration="30"/>
        <stop busStop="4089238819" duration="30"/>
        <stop busStop="2435470835" duration="30"/>
        <stop busStop="3729684439" duration="30"/>
        <stop busStop="2435446331" duration="30"/>
        <stop busStop="3729684437" duration="30"/>
        <stop busStop="2435446330" duration="30"/>
        <stop busStop="3729684443" duration="30"/>
        <stop busStop="6405256168" duration="30"/>
        <stop busStop="3509128042" duration="30"/>
        <stop busStop="6405256169" duration="30"/>
        <stop busStop="4603748637" duration="30"/>
    </trip>
    <trip id="36_bus_:17" type="pt_bus" depart="114" departLane="best" from="341783022" to="258407156#2">
        <stop busStop="4686905462" duration="30"/>
        <stop busStop="5286257146" duration="30"/>
        <stop busStop="4543925335" duration="30"/>
        <stop busStop="3729684442" duration="30"/>
        <stop busStop="3729684438" duration="30"/>
        <stop busStop="2435446332" duration="30"/>
        <stop busStop="3729684440" duration="30"/>
        <stop busStop="2435446333" duration="30"/>
        <stop busStop="4089238817" duration="30"/>
        <stop busStop="2435470839" duration="30"/>
        <stop busStop="2035590397" duration="30"/>
        <stop busStop="4089238822" duration="30"/>
        <stop busStop="4578520183" duration="30"/>
        <stop busStop="2449072192" duration="30"/>
        <stop busStop="4578520180" duration="30"/>
        <stop busStop="2449072194" duration="30"/>
        <stop busStop="4578520178" duration="30"/>
        <stop busStop="2449072196" duration="30"/>
        <stop busStop="2647914597" duration="30"/>
        <stop busStop="4945812530" duration="30"/>
        <stop busStop="5557991905" duration="30"/>
        <stop busStop="5557991904" duration="30"/>
        <stop busStop="3393236535" duration="30"/>
        <stop busStop="4945812529" duration="30"/>
        <stop busStop="5137626633" duration="30"/>
        <stop busStop="4945812528" duration="30"/>
        <stop busStop="2976399351" duration="30"/>
        <stop busStop="6514095511" duration="30"/>
        <stop busStop="2976399348" duration="30"/>
        <stop busStop="6512254744" duration="30"/>
        <stop busStop="2976418641" duration="30"/>
        <stop busStop="6512254741" duration="30"/>
        <stop busStop="4181552955" duration="30"/>
        <stop busStop="6512254740" duration="30"/>
        <stop busStop="2071578441" duration="30"/>
        <stop busStop="4181642143" duration="30"/>
        <stop busStop="3135882098" duration="30"/>
        <stop busStop="6512254739" duration="30"/>
        <stop busStop="2173912365" duration="30"/>
        <stop busStop="6512254738" duration="30"/>
        <stop busStop="3393237218" duration="30"/>
        <stop busStop="4181642157" duration="30"/>
        <stop busStop="4544750287" duration="30"/>
        <stop busStop="6516799808" duration="30"/>
        <stop busStop="1917492638" duration="30"/>
        <stop busStop="6516799811" duration="30"/>
        <stop busStop="3743485949" duration="30"/>
        <stop busStop="6516799814" duration="30"/>
        <stop busStop="3135882108" duration="30"/>
        <stop busStop="6516799816" duration="30"/>
        <stop busStop="2976551190" duration="30"/>
        <stop busStop="6516799818" duration="30"/>
        <stop busStop="5135779389" duration="30"/>
        <stop busStop="5135779390" duration="30"/>
        <stop busStop="4544758703" duration="30"/>
        <stop busStop="6512264909" duration="30"/>
        <stop busStop="-3393236470" duration="30"/>
        <stop busStop="-4210137915" duration="30"/>
        <stop busStop="2984391681" duration="30"/>
        <stop busStop="-4524015322" duration="30"/>
        <stop busStop="-5468249329" duration="30"/>
        <stop busStop="-5468249328" duration="30"/>
    </trip>
    <trip id="37_bus_:18" type="pt_bus" depart="114" departLane="best" from="360929409" to="529574209">
        <stop busStop="4083982305" duration="30"/>
        <stop busStop="6519748643" duration="30"/>
        <stop busStop="4945877796" duration="30"/>
        <stop busStop="4945877795" duration="30"/>
        <stop busStop="4696675294" duration="30"/>
        <stop busStop="4696675292" duration="30"/>
        <stop busStop="5286257146" duration="30"/>
        <stop busStop="4543925335" duration="30"/>
        <stop busStop="3729684442" duration="30"/>
        <stop busStop="3729684438" duration="30"/>
        <stop busStop="2435446332" duration="30"/>
        <stop busStop="3729684440" duration="30"/>
        <stop busStop="2435446333" duration="30"/>
        <stop busStop="4089238817" duration="30"/>
        <stop busStop="2435470839" duration="30"/>
        <stop busStop="2035590397" duration="30"/>
        <stop busStop="4089238822" duration="30"/>
        <stop busStop="4578520183" duration="30"/>
        <stop busStop="2449072192" duration="30"/>
        <stop busStop="4578520180" duration="30"/>
        <stop busStop="2449072194" duration="30"/>
        <stop busStop="4578520178" duration="30"/>
        <stop busStop="2449072196" duration="30"/>
        <stop busStop="2647914597" duration="30"/>
        <stop busStop="4945812530" duration="30"/>
        <stop busStop="5557991905" duration="30"/>
        <stop busStop="5557991904" duration="30"/>
        <stop busStop="3393236535" duration="30"/>
        <stop busStop="4945812529" duration="30"/>
        <stop busStop="5137626633" duration="30"/>
        <stop busStop="4945812528" duration="30"/>
        <stop busStop="2976399351" duration="30"/>
        <stop busStop="6514095511" duration="30"/>
        <stop busStop="2976399348" duration="30"/>
        <stop busStop="6512254744" duration="30"/>
        <stop busStop="2976418641" duration="30"/>
        <stop busStop="6512254741" duration="30"/>
        <stop busStop="4181552955" duration="30"/>
        <stop busStop="6512254740" duration="30"/>
        <stop busStop="2071578441" duration="30"/>
        <stop busStop="4181642143" duration="30"/>
        <stop busStop="3135882098" duration="30"/>
        <stop busStop="6512254739" duration="30"/>
        <stop busStop="2173912365" duration="30"/>
        <stop busStop="6512254738" duration="30"/>
        <stop busStop="3393237218" duration="30"/>
        <stop busStop="4181642157" duration="30"/>
        <stop busStop="4544750287" duration="30"/>
        <stop busStop="6516799808" duration="30"/>
        <stop busStop="1917492638" duration="30"/>
        <stop busStop="6516799811" duration="30"/>
        <stop busStop="3743485949" duration="30"/>
        <stop busStop="6516799814" duration="30"/>
        <stop busStop="3135882108" duration="30"/>
        <stop busStop="6516799816" duration="30"/>
        <stop busStop="2976551190" duration="30"/>